<?xml version="1.0" encoding="UTF-8"?>

<!-- generated on 2024-04-03 00:22:51.961648 by osmWebWizard.py v1_19_0+0000-baa66a0f364
<configuration>
    <net-file value="C:\Users\Joonas\Downloads\sumo-win64-1.19.0\sumo-1.19.0\tools\2024-04-03-00-22-35\osm.net.xml.gz"/>
    <additional-files value="C:\Users\Joonas\Downloads\sumo-win64-1.19.0\sumo-1.19.0\tools\2024-04-03-00-22-35\osm_stops.add.xml,C:\Users\Joonas\Downloads\sumo-win64-1.19.0\sumo-1.19.0\tools\2024-04-03-00-22-35\osm_pt.rou.xml"/>
    <output-trip-file value="C:\Users\Joonas\Downloads\sumo-win64-1.19.0\sumo-1.19.0\tools\2024-04-03-00-22-35\osm.pedestrian.trips.xml"/>
    <route-file value="C:\Users\Joonas\Downloads\sumo-win64-1.19.0\sumo-1.19.0\tools\2024-04-03-00-22-35\osm.pedestrian.rou.xml"/>
    <persontrips value="True"/>
    <persontrip.walk-opposite-factor value="0.8"/>
    <prefix value="ped"/>
    <trip-attributes value="modes=&quot;public&quot;"/>
    <vehicle-class value="pedestrian"/>
    <fringe-factor value="1"/>
    <insertion-density value="10.0"/>
</configuration>
-->

<!-- generated on 2024-04-03 00:22:47 by Eclipse SUMO duarouter Version 1.19.0
<configuration xmlns:xsi="http://www.w3.org/2001/XMLSchema-instance" xsi:noNamespaceSchemaLocation="http://sumo.dlr.de/xsd/duarouterConfiguration.xsd">

    <input>
        <net-file value="C:\Users\Joonas\Downloads\sumo-win64-1.19.0\sumo-1.19.0\tools\2024-04-03-00-22-35\osm.net.xml.gz"/>
        <additional-files value="C:\Users\Joonas\Downloads\sumo-win64-1.19.0\sumo-1.19.0\tools\2024-04-03-00-22-35\osm_stops.add.xml,C:\Users\Joonas\Downloads\sumo-win64-1.19.0\sumo-1.19.0\tools\2024-04-03-00-22-35\osm_pt.rou.xml"/>
        <route-files value="C:\Users\Joonas\Downloads\sumo-win64-1.19.0\sumo-1.19.0\tools\2024-04-03-00-22-35\osm.pedestrian.trips.xml"/>
    </input>

    <output>
        <output-file value="C:\Users\Joonas\Downloads\sumo-win64-1.19.0\sumo-1.19.0\tools\2024-04-03-00-22-35\osm.pedestrian.rou.xml"/>
        <alternatives-output value="NUL"/>
    </output>

    <processing>
        <persontrip.walk-opposite-factor value="0.8"/>
    </processing>

    <time>
        <begin value="0.0"/>
        <end value="3600.0"/>
    </time>

    <report>
        <no-warnings value="true"/>
        <ignore-errors value="true"/>
        <no-step-log value="true"/>
    </report>

</configuration>
-->

<routes xmlns:xsi="http://www.w3.org/2001/XMLSchema-instance" xsi:noNamespaceSchemaLocation="http://sumo.dlr.de/xsd/routes_file.xsd">
    <vType id="ped_pedestrian" vClass="pedestrian"/>
    <person id="ped0" type="ped_pedestrian" depart="0.00">
        <walk edges="165401081#9 1057129694#23 1057129694#24 -524594473#1 -524594473#0 -1151348642 34292559 165401084#1 226610538 32070201 165401085 53062144 53062146 1151348653#1 1151348652 439373198#0 42412177#0 42412177#1 -37717677#16 195601974#2 1126714151#1 -195601970#2 1017372577 1017372576 -581940701#0 -581940697#1 163909661#3 163909661#4 230483577 1085757578 121785130#5 121785130#6 121785130#7 121785130#8 121785130#9 121785130#10 -90044341#1 -90044341#0 -230483570#11 -230483570#10 -230483570#9 -230483570#8 1057665317#1 -1057665317#1"/>
    </person>
    <person id="ped1" type="ped_pedestrian" depart="1.65">
        <walk edges="-864073560#2 -864073560#1 -53059778#12 121559881#0 121559881#1 121559881#2 42412169#7 150836247#1 150836247#2 150836247#3 225604197 1081879516#0 1081879516#1 121904045#1 121904045#0 90513827#1 121550229#1 -518904763 -517054863#1 -517054863#0"/>
    </person>
    <person id="ped2" type="ped_pedestrian" depart="3.30">
        <walk edges="225604195#1 1056926562#5 1056926562#4 225604192#1 225604192#2 225604192#3 -41191066#13 233901262#1 233901262#0 1206863342#0 90513822#2 90513822#1 90513822#0 140955448#0 -43112549#2 -43112549#1 -43112549#0 1107065413 1107065411#4 1107065410#3 195601973#2 195601973#1 195601973#0 195601969#1 195601969#2 195601969#3 195601969#4 90513830 -121934320#1 -121934320#0 32069117 53366497#4 32091802#6 524596179#1 524596179#2 -55498479 -111648752#1 -111648752#0 55498471#7 55498471#8 55498471#9 55498471#10 55498471#11 194961996#0 195574249#0 195574216#0 195574216#1"/>
    </person>
    <person id="ped3" type="ped_pedestrian" depart="4.96">
        <walk edges="53059788#0 121559884#2 121559884#1" busStop="-428075084"/> <!-- Jyväskylä Kauppatori 9 -->
        <ride busStop="-9948795330" lines="13:0" intended="pt_bus_13:0.0" depart="80.00"/>
        <walk edges="233901263#1" busStop="431937849"/> <!-- Palveluliikenne -->
        <walk edges="-650578445#2 -650578445#1 -650578445#0 650576646#0 -87605985#4 -87605985#3 87605984#0 87605984#1 -23580982#0 -53062148#1 1151348653#0 1151348653#1 53062146 53062144 -32090816#0 -32070201 -226610538 -175452031#1 -175452031#0 -1151348530#0"/>
    </person>
    <person id="ped4" type="ped_pedestrian" depart="6.61">
        <walk edges="1057670527 1057670526#2 1057670515 1057670524 1057670523#0 -37717677#4 -37717677#3 -37717677#2 -37717677#1 -37717677#0 42412165#0 42412165#1 -1057678073#1"/>
    </person>
    <person id="ped5" type="ped_pedestrian" depart="8.26">
        <walk edges="-481836305#0 -160707739#1 51362355#7 1057129693#27 1057101870#1 1057101870#3 111707943#3"/>
    </person>
    <person id="ped6" type="ped_pedestrian" depart="9.91">
        <walk edges="-1057670494#1 121785130#9 121785130#10 121785130#11 230483581#0 230483581#1 42412165#9 42412165#8 42412165#7 42412165#6" busStop="427144133"/> <!-- Kirjasto 5 -->
        <ride busStop="650774425" lines="25:0" intended="pt_bus_25:0.1" depart="678.00"/> <!-- Urhonkatu 2 -->
        <walk edges="41191116#3 1081879517#1 1081879517#0 -39544441#4 -39544441#3 -39544441#2 -39544441#1 -39544441#0"/>
    </person>
    <person id="ped7" type="ped_pedestrian" depart="11.56">
        <walk edges="184613809#9 184613809#8 184613809#7 184613809#6 184877674#4 184613809#1 184613809#0 184877684#1 184613808 53366497#4 32069117 23580980 121934320#1 140955451#0 997744182#0 1056924661 1056924662#0 1056924655#1 1056924655#0 -53062149#3 -53062149#2 -53062149#1 -53062149#0 -233901261#1 41191116#0 41191116#1 121904047#0 121904047#1 1081879516#6 1081879516#7 150836249#2 225604194 1151348514 225604201 1126973682#13 1126973683 1151348722 1106680408#3 1106680408#2 1106680408#1 1106680408#0 -53059783#4 -119243449 119243449"/>
    </person>
    <person id="ped8" type="ped_pedestrian" depart="13.22">
        <walk edges="-50760934#1 53059778#1 52977657#2 52977657#1 52977657#0 42412169#3 -150836253#2 -150836253#0 1056926561#0 225589340#9 1056926562#6 1056926562#5 1056926562#4 225604192#1 225604192#2 225604192#3 32065154#0 32065154#1" busStop="-9948795329"/>
        <ride busStop="428075079" lines="20:0" intended="pt_bus_20:0.1" depart="1355.00"/> <!-- Satama 2 -->
        <walk edges="-111636792#4 -111636792#3 -122023150#1 -1069051282#11 867728349#3 867728349#2 867728349#1 867728353 232934668#2 122047139#4 122047139#5"/>
    </person>
    <person id="ped9" type="ped_pedestrian" depart="14.87">
        <walk edges="39544441#2 39544441#3 39544441#4 39544441#5 39544441#6" busStop="-427144104"/> <!-- Urhonkatu 1 -->
        <ride busStop="-9948795329" lines="20:0" intended="pt_bus_20:0.0" depart="616.00"/>
        <walk edges="233901263#1" busStop="-9948795331"/>
        <walk edges="-1056911807"/>
    </person>
    <person id="ped10" type="ped_pedestrian" depart="16.52">
        <walk edges="39402299#2 39402299#3 39402299#4 39402299#5 39402299#6 39402299#7 111707946#0 111707946#1 -32083477#0 32068927#0 55498471#6 55498471#7 55498471#8 55498471#9 55498471#10 55498471#11 194961996#0 195574249#0 195574216#0 195574216#1 195574228 195574267#2 195574264#1 195574264#2 195574268#0 195574268#1 195574268#2 195574268#3 195574266#1 195574269#2 195574269#1 195574272#4 195574269#0"/>
    </person>
    <person id="ped11" type="ped_pedestrian" depart="18.17">
        <walk edges="1056917728#2 1056917728#1 1056917728#0 1056917726 1056917725 1056917723#1 1056917723#0 9827429#2 141214007#5 9827429#0 9827429#12 225604192#3 -41191066#13 233901262#1 233901262#0 1206863342#0 1206863342#1 1085609933#4" busStop="427144109"/> <!-- Jyväskylä Keskusta 4 -->
        <ride busStop="650774425" lines="2:1" intended="pt_bus_2:1.1" depart="686.00"/> <!-- Urhonkatu 2 -->
        <ride busStop="659578624" lines="25:1" intended="pt_bus_25:1.0" depart="778.00"/> <!-- Tourunsilta 2 -->
        <walk edges="1058056426#1 59017595#4 59017595#3 59017595#2 59017595#1 -195978001#0"/>
    </person>
    <person id="ped12" type="ped_pedestrian" depart="19.83">
        <walk edges="867728335 867728336 867728327#3 867728327#2 867728327#1 867728327#0 867728326#0 867728324 -39402300#5 -39402300#4 -39402300#3 -39402300#2 10309047#0 122106502#0 122106502#1 122106502#2 122106502#3 122106502#4 122106502#5 122106502#6 122106502#7 122106502#8 122106502#9 122106502#10 122106502#11 -1151348642 34292559 165401084#1 226610538 32070201 165401085 53062144 53062146 1151348653#1 1151348653#0 53062148#1 23580982#0 -87605984#1 -87605984#0 87605985#3 87605985#4 87605985#5 -39401888#5 -39401888#4 -39401888#3 -39401888#1 -39401888#0 -32065154#0 225604192#3 9827429#11 1056917713#0 1056917713#1 1056917713#2 1056917715 1056917718"/>
    </person>
    <person id="ped13" type="ped_pedestrian" depart="21.48">
        <walk edges="-119243443#2 119243443#3 40584737#0 40584737#1 40584737#2 39544441#0 39544441#1 39544441#2 39544441#3 39544441#4 39544441#5 39544441#6 39544441#7 1081879516#5 1081879516#4 1081879516#3 1081879516#2 41191066#4 41191066#5 41191066#6 41191066#7 41191066#8 41191066#9 141214007#1 141214007#2 41191066#12 233901262#1 233901262#0 1206863342#0 1206863342#1 1085609933#4 -121551922#2"/>
    </person>
    <person id="ped14" type="ped_pedestrian" depart="23.13">
        <walk edges="45356992#0 -45356991#2 -45356991#1 1126977272#0 1126977272#1 1126978445 122158731#0 140955453#3 140955453#4 140955453#5 -75869350#2 -75869350#1 -75869350#0 1151348641#0 1151348641#2 1151348641#3 -40584736#4 -40584736#3 -40584736#2 1255350594"/>
    </person>
    <person id="ped15" type="ped_pedestrian" depart="24.78">
        <walk edges="39402299#7 40927593#0 40927593#1 55498471#0 194962011#0 194962011#1 -194961993#1 223983182#0 223983182#1"/>
    </person>
    <person id="ped16" type="ped_pedestrian" depart="26.43">
        <walk edges="1151348651 -111678870#2 -111678870#1 -111678870#0 122106502#0 122106502#1 122106502#2" busStop="-9713351376"/>
        <ride busStop="427144135" lines="5:2" intended="pt_bus_5:2.0" depart="593.00"/> <!-- Kirjasto 6 -->
        <walk edges="42412165#5 -1057678079#0 -1057658768#2 -1057658768#1 42416682#3 121785142#1 52994539 121785124#6 121785124#0 52994550 90044348#1"/>
    </person>
    <person id="ped17" type="ped_pedestrian" depart="28.09">
        <walk edges="1057161998#0 165401081#5 165401081#6 165401081#7 165401081#8 165401081#9 165401081#10 1057129694#21 1057129693#21 165401081#11 524594473#5 524594473#6 -51362354#0 51362355#9 53366497#8 284793342 23580980 121934320#1 140955451#0 997744182#0 1056924661 1056924662#0 1056924655#1 1056924655#0 -53062149#3 -53062149#2 -53062149#1 -53062149#0 -233901261#1 41191116#0 41191116#1 121904047#0 121904047#1 1081879516#6 1081879516#7 1081879516#8 225604197 -150836247#3 -150836247#2 -150836247#1 42412169#6 42416668#0 42416668#1 42416668#2 53059778#8 121559884#0 121559884#1"/>
    </person>
    <person id="ped18" type="ped_pedestrian" depart="29.74">
        <walk edges="42412169#0 122141259#0 121650501 1056922745#1 1056922744#2 1056922744#1 1056922744#0 1056922742 1056922741 1056917736#0 1056917737 86207558#7 225589340#10 1056926562#7 1056926562#0 1056926562#1 121651802#10 9827429#4 9827429#3 9827429#2 9827429#1 141214007#4"/>
    </person>
    <person id="ped19" type="ped_pedestrian" depart="31.39">
        <walk edges="51732893#2 -51732893#1 -51732893#0 -1151348563#2 -32081837#6 -32081837#5 -32081837#4 -32081837#3 90044356#1 90044356#0 42412165#3 42412165#4 42412165#5 -1057678079#0 -1057658768#2 -1057658768#1 42416682#3 121785142#1 121785142#2 121785142#3"/>
    </person>
    <person id="ped20" type="ped_pedestrian" depart="33.04">
        <walk edges="195590601 55498488#12 55498488#13 524596179#1 524596179#2 -55498479 111707946#3 111707946#4 111707946#5 111707946#6 165401082#0 165401082#1 165401082#2 165401082#3 10309047#0 111678870#0 111678870#1 111678870#2 -1151348651 -122047135#1 -1069051282#13 -1069051282#11 -1069051282#10 -1069051282#9 -1069051282#8"/>
    </person>
    <person id="ped21" type="ped_pedestrian" depart="34.69">
        <walk edges="-524594473#6 -524594473#5 -524594473#4 -524594473#2 -524594473#1 -184501607#2 -184501607#1 622019344#1 949814221 -949814221"/>
    </person>
    <person id="ped22" type="ped_pedestrian" depart="36.35">
        <walk edges="-1126962376#0 78412351#2 78412351#1 78412351#0 -1151348640#2 -1151348640#1 -1151348640#0 40584737#2 39544441#0 39544441#1 39544441#2 39544441#3 39544441#4 39544441#5 39544441#6" busStop="-427144104"/> <!-- Urhonkatu 1 -->
        <ride busStop="-9948795329" lines="20:0" intended="pt_bus_20:0.0" depart="616.00"/>
        <walk edges="1107065405#0 122141259#10 122141259#9 122141259#8 122141259#7 53057993#1 -530538149"/>
    </person>
    <person id="ped23" type="ped_pedestrian" depart="38.00">
        <walk edges="-122047136#4 122047136#5 122047136#6 442851867#0 442851867#1 442851867#2 -122106501#0 -111678870#2 -111678870#1 -111678870#0 -10309047#0 39402300#2 39402300#3 -55498471#21 867728325#2 -867728325#2"/>
    </person>
    <person id="ped24" type="ped_pedestrian" depart="39.65">
        <walk edges="165380302#2 165380291 121785124#2 121785131 90044348#2 90044353#2 230483571#0 230483571#1 230483571#2 90035400#1 90035400#0 90044371#10 90044371#9 90044371#8 90044371#7 41191104#0 41191104#1 32064870#0 53057991 53276395 1057138969 53057993#0 53057993#1 122141259#7 -1057098065#0 1057098065#0"/>
    </person>
    <person id="ped25" type="ped_pedestrian" depart="41.30">
        <walk edges="1057110778#1 1057110768 122106502#6 122106502#7 122106502#8 122106502#9 122106502#10 122106502#11 -1151348642 34292559 165401084#1 226610538 32070201 165401085 53062144 53062146 1151348653#1 1151348653#0 53062148#1 23580982#0 -87605984#1 -87605984#0 87605985#3 87605985#4 87605985#5 -39401888#5 1082148693#5 1082148693#6 233901265#1 233901265#0 1206863342#1 1206863342#0 233901262#0 233901262#1 -41191066#12 -41191066#11 -41191066#10 -41191066#9 -41191066#8 -41191066#7 -41191066#6"/>
    </person>
    <person id="ped26" type="ped_pedestrian" depart="42.95">
        <walk edges="-845864107#1 845864108"/>
    </person>
    <person id="ped27" type="ped_pedestrian" depart="44.61">
        <walk edges="184613809#0 184877684#1 184613808 53366497#4 32069117 23580980 121934320#1 140955451#0 997744182#0 1056924661 1056924662#0 1056924655#1 1056924655#0 -53062149#3 -53062149#2 -53062149#1 -53062149#0 -233901261#1 -233901261#0 -1184254524 1059314851#0 1059314851#1 121545631#0 121545631#1 131884933"/>
    </person>
    <person id="ped28" type="ped_pedestrian" depart="46.26">
        <walk edges="-232934673#7 -232934673#6 -232934673#5 194962022#3 195574239#1 223983180"/>
    </person>
    <person id="ped29" type="ped_pedestrian" depart="47.91">
        <walk edges="-230541124 116624743#1 78412351#4 78412351#3 78412351#2 78412351#1 78412351#0 75869347#0 75869347#1 75869347#2 -1151348641#3 -1151348641#2 -1151348641#0 -233901261#6 -233901261#5 -233901261#4 -233901261#3 44842049#0 44842049#1 44842049#2 -13717848#3 -13717848#2 -90513819 -1106689106 -140955451#0 -121934320#1 -121934320#0 -284793342 53366497#8 51362355#9 51362354#0 -524594473#6 -524594473#5 -165401081#11 1057129693#21 1057129694#21 -165401081#10 -165401081#9 -165401081#8 -165401081#7 -165401081#6 -165401081#5 -165401081#4 -165401081#3 1057162000#0"/>
    </person>
    <person id="ped30" type="ped_pedestrian" depart="49.56">
        <walk edges="949814219#0 -949814221 -622019344#1 -184501607#0 165401082#1"/>
    </person>
    <person id="ped31" type="ped_pedestrian" depart="51.21">
        <walk edges="121650525#0 53057992#0 53057993#0 53057993#1 122141259#7 122141259#8 122141259#9 122141259#10 1107065405#0" busStop="-9948795329"/>
        <walk edges="233901263#1" busStop="6029151339"/> <!-- Pali 1/ Asemakatu -->
        <ride busStop="659578624" lines="20:1" intended="pt_bus_20:1.0" depart="798.00"/> <!-- Tourunsilta 2 -->
        <walk edges="1058056426#1 59017595#4 59017595#3 59017595#2 59017595#1 59017595#0 -458361856#0 -10650152 40584733#6 225133247 39402299#0 39402299#1 -55498488#1 -55498488#0 -10650150#7 -10650150#5 -10650150#4 -10650150#3 194962006#0 194962006#1 194962006#2 195574239#0 195574239#1"/>
    </person>
    <person id="ped32" type="ped_pedestrian" depart="52.87">
        <walk edges="439373198#1 439373198#0 42412177#0 42412177#1 87605994 87605973#0 87605973#1 87605973#2 87605973#3 1097513875 122141259#9 122141259#8 122141259#7 53057993#1 53057993#0 1057138969 32064839#1"/>
    </person>
    <person id="ped33" type="ped_pedestrian" depart="54.52">
        <walk edges="-524596179#2 -524596179#1 32091802#6 53366497#4 32069117 23580980 121934320#1 90513830 195601969#4 1018593725#6 1018593725#5 1018593725#4 1018593725#3 1018593725#2 1018593725#1 1018593727#0 1018593727#1 -1107065411#0 -23580982#4 -23580982#3 -23580982#2 -23580982#1 -23580982#0 37773722 75512306#0 75512306#1 75512306#2 75512306#3 75512306#4 42412179#0 42412179#1 -37717677#8 -37717677#7 -37717677#6 -37717677#5 -37717677#4 -37717677#3 -37717677#2 -37717677#1 42412165#13 -1057678094#0"/>
    </person>
    <person id="ped34" type="ped_pedestrian" depart="56.17">
        <walk edges="1017372581#4 1017372581#5 37717677#16 87605994 87605985#0 87605985#1 87605985#2 87605985#3 87605985#4 -650576646#0 650578445#0 650578445#1 650578445#2 -650578445#2" busStop="431937849"/> <!-- Palveluliikenne -->
        <walk edges="233901263#1" busStop="6029151339"/> <!-- Pali 1/ Asemakatu -->
        <ride busStop="427741938" lines="16M:1" intended="pt_bus_16M:1.0" depart="1022.00"/> <!-- Urhonkatu 4 -->
        <walk edges="1083289619#1 -39544441#1 -39544441#0 -40584737#2 1151348640#0 1151348640#1 1151348640#2 75869347#0 75869347#1 75869347#2 -40584736#4 -40584736#3 75868198#2 845864107#1 845864108 -845864108"/>
    </person>
    <person id="ped35" type="ped_pedestrian" depart="57.82">
        <walk edges="-42412177#0 42412177#1 -37717677#16 195601974#2 1126714151#1 -195601970#2 1017372577 1017372576 -581940701#0 -581940697#1 163909661#3 163909661#4 230483577 1085757578 121785130#5 1085757576 121650531#0 121650531#1 90044371#4 90044371#5 90044371#6 90044371#7 43112551#0 43112551#1 90035407#7 854852089 -854852088 854852087#2"/>
    </person>
    <person id="ped36" type="ped_pedestrian" depart="59.48">
        <walk edges="52994545 121785124#6 121785124#5 121785124#4 121785140 121785142#4 121785142#5 230483585#0 230483585#1 230483570#11 90044341#0 90044341#1 121785130#10 121785130#9 121785130#8 121785130#7 121785130#6 121785130#5 1085757578 230483577 163909661#5 163909661#6 163909661#7 195601971#3 1017372581#10"/>
    </person>
    <person id="ped38" type="ped_pedestrian" depart="62.78">
        <walk edges="55498488#10 184877681#1 184877681#0 184877674#4 184613809#1 184613809#0 184877684#1 184613808 53366497#4 32069117 23580980 121934320#1 140955451#0 140955451#1 90513819 13717848#2 13717848#3 -44842049#2 -44842049#1 -44842049#0 233901261#3 41191116#5 41191116#4 1081879517#1"/>
    </person>
    <person id="ped39" type="ped_pedestrian" depart="64.43">
        <walk edges="-75869350#0 75869350#1 75869350#2 -140955453#5 -140955453#4 -140955453#3 -140955453#2 -140955453#1 -140955453#0 -13717848#3 -13717848#2 -90513819 -1106689106 -140955451#0 -121934320#1 -121934320#0 32069117 53366497#4 32091802#6 32091802#8 -32083477#2 -32083477#0 32068927#0 -55498471#5 -55498471#4"/>
    </person>
    <person id="ped40" type="ped_pedestrian" depart="66.08">
        <walk edges="121651802#4 225604200#0 225604196#1 225604196#0 225604195#1 225604195#0 121651803#2 121651803#1 122141259#6 122141259#7 122141259#8 122141259#9 1097513875 -87605973#3 1109927238#1 1057916022#1 -195601974#4 -195601974#2 1017372581#5 -37717677#13 -42412178#1 -42412178#0 75512306#3 -75512306#4"/>
    </person>
    <person id="ped41" type="ped_pedestrian" depart="67.74">
        <walk edges="122047135#1 1151348651 122106501#0 122106501#1 34292559 165401084#1 226610538 32070201 165401085 53062144 53062146 1151348653#1 1151348652 439373198#0 42412177#0 42412177#1 87605994 87605973#0 87605973#1 87605973#2 87605973#3 1097513875 122141259#9 122141259#8 122141259#7 53057993#1 53057993#0 1057138969 32064839#1 32064839#2 32064839#3 32064839#4 32082297#5 32082297#6 32082297#7 32082297#8 32082297#9 163909667#0 53276393#4"/>
    </person>
    <person id="ped43" type="ped_pedestrian" depart="71.04">
        <walk edges="98581134#2 98581134#3 98581134#4 98581134#5 98581134#6 230483570#9 230483570#10 -230483585#1 -230483585#0 230483580#0 230483580#1 42412165#8 42412165#7 42412165#6" busStop="427144133"/> <!-- Kirjasto 5 -->
        <ride busStop="650774425" lines="25:0" intended="pt_bus_25:0.1" depart="678.00"/> <!-- Urhonkatu 2 -->
        <walk edges="41191116#3 1081879517#1 1081879517#0 -39544441#4 -39544441#3 -39544441#2 -39544441#1 -39544441#0 -40584737#2 1151348640#0 1151348640#1 1151348640#2 75869347#0 1126962373 1126962371#2"/>
    </person>
    <person id="ped44" type="ped_pedestrian" depart="72.69">
        <walk edges="-1151348659#2 1058056427#0 1058056427#1 1058056427#2 40584736#0 40584736#1 40584736#2 40584736#3 40584736#4 -75869347#2 -75869347#1 -75869347#0 -1151348640#2 -1151348640#1 -1151348640#0 40584737#2 39544441#0 39544441#1 39544441#2 39544441#3 39544441#4 39544441#5 39544441#6" busStop="-427144104"/> <!-- Urhonkatu 1 -->
        <ride busStop="-9948795329" lines="20:0" intended="pt_bus_20:0.1" depart="1216.00"/>
        <walk edges="1107065405#0 122141259#10 122141259#9 122141259#8 122141259#7 122141259#6 122141259#5 122141259#4 122141259#3 122141259#2 -1081875345#0"/>
    </person>
    <person id="ped45" type="ped_pedestrian" depart="74.34">
        <walk edges="-128297591#0 -142296710#5 -142296710#4 -142296710#3 1126977256 -140955453#3 -140955453#2 -140955453#1 -140955453#0 -13717848#3 -13717848#2 -13717848#1 -13717848#0 -1107065411#9 -1107065411#7 -1107065411#6 -1107065411#5 -1107065411#4 -1107065411#3 -1107065411#2 -1107065411#1 -1107065411#0 -23580982#4 -23580982#3 -23580982#2 -23580982#1 -23580982#0 37773722 75512306#0 75512306#1 75512306#2 75512306#3 75512306#4 42412179#0 42412179#1 -37717677#8 -37717677#7 -37717677#6 -37717677#5 -37717677#4 -37717677#3 -37717677#2 -37717677#1 -37717677#0 1151348563#0 1151348563#1 1151348563#2 153200751#0 153200751#1 153200751#2 153200751#3"/>
    </person>
    <person id="ped46" type="ped_pedestrian" depart="76.00">
        <walk edges="32205651" busStop="428075082"/> <!-- Jyväskylä Kauppatori 10 -->
        <walk edges="121559884#1" busStop="-428075083"/> <!-- Jyväskylä Kauppatori 8 -->
        <ride busStop="-9948795329" lines="5:0" intended="pt_bus_5:0.0" depart="196.00"/>
        <walk edges="1107065405#0 122141259#10 1097513875 163909661#0 163909661#1 163909661#2 163909661#3 163909661#4 230483577 1085757578 121785130#5 121785130#6 121785130#7 121785130#8 121785130#9 121785130#10 121785130#11 121785130#12 121785130#13 1057671014#0"/>
    </person>
    <person id="ped47" type="ped_pedestrian" depart="77.65">
        <walk edges="-1106816644#1 1126973682#10 1126973682#11 150836246 1151348514 225604194 150836249#2 1081879516#7 1081879516#6 121904047#1 121904047#0 41191116#1 41191116#0 233901261#1 53062149#0 53062149#1 53062149#2 53062149#3 1056924655#0 1056924655#1 1056924662#0 1056924661 997744182#0 -140955451#0 -121934320#1 -121934320#0 -284793342 53366497#8 51362355#9 51362354#0 -524594473#6 1057129693#23 51362355#2 1057162014 -1057661574 -1057661573#0 -1057661573#4 -1057661573#3 1057162013 1057162002#4"/>
    </person>
    <person id="ped48" type="ped_pedestrian" depart="79.30">
        <walk edges="98316242#1 -75512306#3 -75512306#2 -75512306#1 -75512306#0 -37773722 23580982#0 23580982#1 23580982#2 23580982#3 23580982#4 23580982#5 1107065411#1 1107065411#2 1107065411#3 1107065411#4 1107065411#5 1107065411#6 1107065411#7 1107065411#9 13717848#0 1056924655#0 1056924655#1 1056924656#1 1056924656#2 997744181 229036767#0 229036767#1 229036767#2 229036767#3 229036767#4 229036767#5 229036767#6 229036767#7 229036767#8 229036767#9 229036767#10 229036767#11 229036767#12 1126980917#2 1126980917#1 1126980918 1126980919"/>
    </person>
    <person id="ped49" type="ped_pedestrian" depart="80.95">
        <walk edges="90035407#4 90035407#5 90044361#0 90044361#1 121934319#9 121934319#10 121934319#11 121934319#12 121934319#13 1057138970#0 530538146#5 121651803#0 122141259#6 122141259#7 122141259#8 122141259#9 122141259#10 1107065405#0" busStop="-9948795329"/>
        <walk edges="-32065154#1 -32065154#0 -41191066#13 233901262#1 233901262#0 90513827#6 90513827#5 517054865#1"/>
    </person>
    <person id="ped50" type="ped_pedestrian" depart="82.60">
        <walk edges="-1057164595 -1057164594#1 165401081#1 165401081#2 165401081#3 165401081#4 165401081#5 165401081#6 165401081#7 165401081#8 165401081#9 1057129694#23 1057129694#24 -524594473#1 -524594473#0 -1151348642 34292559 165401084#1 226610538 32070201 165401085 53062144 53062146 1151348653#1 1151348652 439373198#0 75512306#0 75512306#1 75512306#2 42412178#0 42412178#1 -37717677#12 -37717677#11 -37717677#10 121785130#0 121785130#1 121785130#2 121785130#3 195601989#0"/>
    </person>
    <person id="ped51" type="ped_pedestrian" depart="84.26">
        <walk edges="195574233#3 195574233#2 195574233#1 195574233#0 55498471#13" busStop="648569674"/> <!-- Messukeskus 2 -->
        <walk edges="111707946#5 111707946#6 165401081#0 165401081#1 165401081#2 165401081#3 165401081#4 165401081#5 165401081#6 165401081#7 165401081#8 165401081#9 1057129694#23 1057129694#24 -524594473#1 -524594473#0 -1151348642 34292559 165401084#1 226610538 32070201 165401085 53062144 53062146 1151348653#1"/>
    </person>
    <person id="ped52" type="ped_pedestrian" depart="85.91">
        <walk edges="-845864107#0 75868198#2 40584736#3 40584736#4 -1151348641#3 -1151348641#2 -1151348641#0 -233901261#6 -233901261#5 -233901261#4 -233901261#3 -233901261#2 -233901261#1 -233901261#0 -1184254524 -140955443#1 42412176#2 42412176#1 42412176#0 -1107065411#9 -1107065411#7 -1107065411#6 -1107065411#5 -1107065411#4 -1107065411#3 -1107065411#2 -1107065411#1 -1107065411#0 -23580982#4 -23580982#3 -23580982#2 -23580982#1 -23580982#0 -53062148#1 1151348653#0 1151348653#1 53062146 53062144 -32090816#0 -32070201 -226610538 -165401084#1 165401084#1"/>
    </person>
    <person id="ped53" type="ped_pedestrian" depart="87.56">
        <walk edges="-128297595#2 1017546219#1 1017546219#0 1017546218#1 1017546218#0 -128297591#0 -142296710#5 -142296710#4 -142296710#3 1126977256 -140955453#3 -140955453#2 -140955453#1 -140955453#0 -13717848#3 -13717848#2 -13717848#1 -13717848#0 -1107065411#9 -1107065411#7 -1107065411#6 -1107065411#5 -1107065411#4 -1107065411#3 -1107065411#2 -1107065411#1 -1107065411#0 -23580982#4 -23580982#3 -23580982#2 -23580982#1 -87605984#1 -87605984#0 -87605985#2 -87605985#1 -87605985#0 87605973#0 1057919242#1 1057919243#1"/>
    </person>
    <person id="ped54" type="ped_pedestrian" depart="89.21">
        <walk edges="1081875350#0 -1081875339#0 121651803#5 122141259#3 122141259#4 122141259#5 122141259#6 122141259#7 122141259#8 122141259#9 122141259#10 1107065405#0" busStop="-9948795329"/>
        <ride busStop="428075079" lines="20:0" intended="pt_bus_20:0.0" depart="755.00"/> <!-- Satama 2 -->
        <walk edges="39402300#7 -39402300#6 867728324 867728326#0 867728326#1 867728328#0 867728328#1"/>
    </person>
    <person id="ped55" type="ped_pedestrian" depart="90.87">
        <walk edges="52994538#4 52994547#1 90044348#0 52994550 121785124#1 121785124#2 121785124#3 121785140 121785142#4 121785142#5 230483580#0 230483580#1 42412165#9 42412165#10 42412165#11 42412165#12 42412165#13 37717677#1 37717677#2 37717677#3 -75512306#8 -75512306#7 -75512306#6"/>
    </person>
    <person id="ped56" type="ped_pedestrian" depart="92.52">
        <walk edges="111636792#1 -111636792#0 1151348651 122106501#0 122106501#1 34292559 165401084#1 226610538 32070201 165401085 53062144 53062146 1151348653#1 1151348653#0 53062148#1 23580982#0 -87605984#1 -87605984#0 87605985#3 87605985#4 87605985#5 -39401888#5 -39401888#4 -39401888#3 -39401888#1 -39401888#0 -32065154#0"/>
    </person>
    <person id="ped57" type="ped_pedestrian" depart="94.17">
        <walk edges="55498482#1 -55498482#0 165401082#3 10309047#0 122106502#0 122106502#1 122106502#2 122106502#3 122106502#4 122106502#5 122106502#6 122106502#7 122106502#8 122106502#9 122106502#10 122106502#11 -1151348642 34292559 165401084#1 226610538 32070201 165401085 53062144 53062146 1151348653#1 1151348652 439373198#0 42412177#0 42412177#1 87605994 87605973#0 87605973#1 87605973#2 87605973#3 1097513875 122141259#9 122141259#8 122141259#7 53057993#1 53057993#0 1057138969 32064839#1 32064839#2 32064839#3 32064839#4 32082297#4 32082297#3 32082297#2 52916167#0"/>
    </person>
    <person id="ped58" type="ped_pedestrian" depart="95.82">
        <walk edges="1016210603#2 1016210602#7 1016210602#5 1016210602#4 -165401084#0 1151348642 524594473#0 524594473#1 1057129694#24 1057129694#23 -165401081#9 -165401081#8 165401081#7"/>
    </person>
    <person id="ped59" type="ped_pedestrian" depart="97.47">