<?xml version="1.0" encoding="UTF-8"?>

<!-- generated on 2024-04-03 00:22:46.249193 by osmWebWizard.py v1_19_0+0000-baa66a0f364
<configuration>
    <net-file value="C:\Users\Joonas\Downloads\sumo-win64-1.19.0\sumo-1.19.0\tools\2024-04-03-00-22-35\osm.net.xml.gz"/>
    <output-trip-file value="C:\Users\Joonas\Downloads\sumo-win64-1.19.0\sumo-1.19.0\tools\2024-04-03-00-22-35\osm.passenger.trips.xml"/>
    <route-file value="C:\Users\Joonas\Downloads\sumo-win64-1.19.0\sumo-1.19.0\tools\2024-04-03-00-22-35\osm.passenger.rou.xml"/>
    <prefix value="veh"/>
    <trip-attributes value="departLane=&quot;best&quot;"/>
    <fringe-start-attributes value="departSpeed=&quot;max&quot;"/>
    <vehicle-class value="passenger"/>
    <lanes value="True"/>
    <fringe-factor value="5"/>
    <allow-fringe.min-length value="1000.0"/>
    <via-edge-types value="highway.motorway,highway.motorway_link,highway.trunk_link,highway.primary_link,highway.secondary_link,highway.tertiary_link"/>
    <min-distance value="300.0"/>
    <min-distance.fringe value="10.0"/>
    <remove-loops value="True"/>
    <validate value="True"/>
    <insertion-density value="12.0"/>
</configuration>
-->

<!-- generated on 2024-04-03 00:22:46 by Eclipse SUMO duarouter Version 1.19.0
<configuration xmlns:xsi="http://www.w3.org/2001/XMLSchema-instance" xsi:noNamespaceSchemaLocation="http://sumo.dlr.de/xsd/duarouterConfiguration.xsd">

    <input>
        <net-file value="C:\Users\Joonas\Downloads\sumo-win64-1.19.0\sumo-1.19.0\tools\2024-04-03-00-22-35\osm.net.xml.gz"/>
        <route-files value="C:\Users\Joonas\Downloads\sumo-win64-1.19.0\sumo-1.19.0\tools\2024-04-03-00-22-35\osm.passenger.trips.xml"/>
    </input>

    <output>
        <output-file value="C:\Users\Joonas\Downloads\sumo-win64-1.19.0\sumo-1.19.0\tools\2024-04-03-00-22-35\osm.passenger.trips.xml.tmp"/>
        <alternatives-output value="NUL"/>
        <write-trips value="true"/>
    </output>

    <processing>
        <remove-loops value="true"/>
    </processing>

    <time>
        <begin value="0.0"/>
        <end value="3600.0"/>
    </time>

    <report>
        <no-warnings value="true"/>
        <ignore-errors value="true"/>
        <no-step-log value="true"/>
    </report>

</configuration>
-->

<routes xmlns:xsi="http://www.w3.org/2001/XMLSchema-instance" xsi:noNamespaceSchemaLocation="http://sumo.dlr.de/xsd/routes_file.xsd">
    <vType id="veh_passenger" vClass="passenger"/>
    <trip id="veh0" type="veh_passenger" depart="0.00" departLane="best" from="270326706#0" to="-10894151#3"/>
    <trip id="veh1" type="veh_passenger" depart="3.86" departLane="best" from="55358956#0" to="-36865770#0"/>
    <trip id="veh2" type="veh_passenger" depart="7.72" departLane="best" from="36735995#1" to="32205669#0"/>
    <trip id="veh3" type="veh_passenger" depart="11.58" departLane="best" from="50848414#3" to="-130596424#0"/>
    <trip id="veh4" type="veh_passenger" depart="15.44" departLane="best" from="121904037#0" to="111648753#0"/>
    <trip id="veh5" type="veh_passenger" depart="19.30" departLane="best" from="36736000#5" to="160105973#1"/>
    <trip id="veh7" type="veh_passenger" depart="27.03" departLane="best" from="-27878148#5" to="225314605#0"/>
    <trip id="veh8" type="veh_passenger" depart="30.89" departLane="best" from="36736000#7" to="230541106#0"/>
    <trip id="veh9" type="veh_passenger" depart="34.75" departLane="best" from="36826394" to="10204536#4"/>
    <trip id="veh11" type="veh_passenger" depart="42.47" departLane="best" from="1069051281#3" to="32068785#1"/>
    <trip id="veh12" type="veh_passenger" depart="46.33" departLane="best" from="55358956#1" to="111678869#0"/>
    <trip id="veh13" type="veh_passenger" depart="50.19" departLane="best" departSpeed="max" from="-135256131#2" to="-150836253#0"/>
    <trip id="veh14" type="veh_passenger" depart="54.05" departLane="best" from="439373178#1" to="25832375#2"/>
    <trip id="veh16" type="veh_passenger" depart="61.77" departLane="best" from="160105973#1" to="8582335#4"/>
    <trip id="veh17" type="veh_passenger" depart="65.63" departLane="best" departSpeed="max" from="1151348513" to="225464720"/>
    <trip id="veh18" type="veh_passenger" depart="69.49" departLane="best" departSpeed="max" from="36865770#0" to="27878148#7"/>
    <trip id="veh19" type="veh_passenger" depart="73.35" departLane="best" from="45357072" to="230541103#0"/>
    <trip id="veh20" type="veh_passenger" depart="77.22" departLane="best" departSpeed="max" from="32236935#0" to="1151348573"/>
    <trip id="veh21" type="veh_passenger" depart="81.08" departLane="best" from="-36792406#1" to="-125663494"/>
    <trip id="veh22" type="veh_passenger" depart="84.94" departLane="best" from="-1255350561" to="439373187#0"/>
    <trip id="veh23" type="veh_passenger" depart="88.80" departLane="best" departSpeed="max" from="-150836247#3" to="8582335#7"/>
    <trip id="veh24" type="veh_passenger" depart="92.66" departLane="best" from="25832375#2" to="1151626837#0"/>
    <trip id="veh25" type="veh_passenger" depart="96.52" departLane="best" from="-111678873#3" to="-36736534#2"/>
    <trip id="veh26" type="veh_passenger" depart="100.38" departLane="best" from="530538146#5" to="53576630#1"/>
    <trip id="veh27" type="veh_passenger" depart="104.24" departLane="best" from="-27878148#3" to="135256124#0"/>
    <trip id="veh28" type="veh_passenger" depart="108.10" departLane="best" departSpeed="max" from="-32068785#3" to="36735995#3"/>
    <trip id="veh29" type="veh_passenger" depart="111.96" departLane="best" from="32068734#1" to="121904034"/>
    <trip id="veh30" type="veh_passenger" depart="115.82" departLane="best" from="9828298#0" to="28909866"/>
    <trip id="veh31" type="veh_passenger" depart="119.68" departLane="best" from="219839530#0" to="32236937"/>
    <trip id="veh32" type="veh_passenger" depart="123.54" departLane="best" from="-40927608#1" to="-36736000#7"/>
    <trip id="veh33" type="veh_passenger" depart="127.41" departLane="best" from="-36792406#2" to="111648753#2"/>
    <trip id="veh34" type="veh_passenger" depart="131.27" departLane="best" departSpeed="max" from="10202435" to="-650577130#0"/>
    <trip id="veh35" type="veh_passenger" depart="135.13" departLane="best" from="-36736000#10" to="55358956#1"/>
    <trip id="veh36" type="veh_passenger" depart="138.99" departLane="best" from="-48900315#2" to="-10894151#3"/>
    <trip id="veh37" type="veh_passenger" depart="142.85" departLane="best" from="-27878152#2" to="122106500#2"/>
    <trip id="veh38" type="veh_passenger" depart="146.71" departLane="best" from="524599953#2" to="-1255350601#0"/>
    <trip id="veh39" type="veh_passenger" depart="150.57" departLane="best" from="530538146#3" to="-52941618#0"/>
    <trip id="veh40" type="veh_passenger" depart="154.43" departLane="best" from="219839536#1" to="-55358955"/>
    <trip id="veh41" type="veh_passenger" depart="158.29" departLane="best" from="225464730#1" to="51969422"/>
    <trip id="veh42" type="veh_passenger" depart="162.15" departLane="best" from="1151626836#2" to="-36865770#0"/>
    <trip id="veh43" type="veh_passenger" depart="166.01" departLane="best" from="-9929914#2" to="175482157#0"/>
    <trip id="veh44" type="veh_passenger" depart="169.87" departLane="best" departSpeed="max" from="-135256131#2" to="1151348637"/>
    <trip id="veh46" type="veh_passenger" depart="177.60" departLane="best" departSpeed="max" from="36789027" to="1255350548#0"/>
    <trip id="veh47" type="veh_passenger" depart="181.46" departLane="best" from="-121904037#3" to="121904035"/>
    <trip id="veh48" type="veh_passenger" depart="185.32" departLane="best" from="160105973#1" to="48900313#1"/>
    <trip id="veh49" type="veh_passenger" depart="189.18" departLane="best" from="-10205713#1" to="35869001"/>
    <trip id="veh50" type="veh_passenger" depart="193.04" departLane="best" from="32068817#3" to="219839539"/>
    <trip id="veh51" type="veh_passenger" depart="196.90" departLane="best" from="530538146#5" to="28909866"/>
    <trip id="veh53" type="veh_passenger" depart="204.62" departLane="best" from="1255350546" to="1255350591#0"/>
    <trip id="veh54" type="veh_passenger" depart="208.48" departLane="best" from="-48900315#2" to="-55358955"/>
    <trip id="veh55" type="veh_passenger" depart="212.34" departLane="best" from="1255350603" to="32783334#8"/>
    <trip id="veh58" type="veh_passenger" depart="223.92" departLane="best" from="227205343#0" to="-32068734#1"/>
    <trip id="veh59" type="veh_passenger" depart="227.79" departLane="best" from="36736000#10" to="219919662"/>
    <trip id="veh60" type="veh_passenger" depart="231.65" departLane="best" from="36736537#0" to="219839537#0"/>
    <trip id="veh62" type="veh_passenger" depart="239.37" departLane="best" from="10894151#2" to="53060862#0"/>
    <trip id="veh63" type="veh_passenger" depart="243.23" departLane="best" from="48900315#6" to="40079809"/>
    <trip id="veh64" type="veh_passenger" depart="247.09" departLane="best" departSpeed="max" from="-9929914#5" to="121904032#6"/>
    <trip id="veh65" type="veh_passenger" depart="250.95" departLane="best" from="-48900315#5" to="650577130#0"/>
    <trip id="veh66" type="veh_passenger" depart="254.81" departLane="best" from="-130596423#0" to="135256131#2"/>
    <trip id="veh67" type="veh_passenger" depart="258.67" departLane="best" from="121904038#1" to="36735997#6"/>
    <trip id="veh68" type="veh_passenger" depart="262.53" departLane="best" from="36736000#14" to="27878148#1"/>
    <trip id="veh69" type="veh_passenger" depart="266.39" departLane="best" from="1255350559" to="225314613"/>
    <trip id="veh70" type="veh_passenger" depart="270.25" departLane="best" from="530538146#3" to="48900317#0"/>
    <trip id="veh71" type="veh_passenger" depart="274.11" departLane="best" from="-121904037#2" to="-36789027"/>
    <trip id="veh72" type="veh_passenger" depart="277.98" departLane="best" from="165329099#0" to="36735995#3"/>
    <trip id="veh73" type="veh_passenger" depart="281.84" departLane="best" from="-36735996#2" to="1069051281#0"/>
    <trip id="veh74" type="veh_passenger" depart="285.70" departLane="best" from="-9929914#0" to="32068597#0"/>
    <trip id="veh75" type="veh_passenger" depart="289.56" departLane="best" from="-1255350487#1" to="175482167#2"/>
    <trip id="veh76" type="veh_passenger" depart="293.42" departLane="best" from="-231315058" to="-36865770#1"/>
    <trip id="veh77" type="veh_passenger" depart="297.28" departLane="best" from="-1069051280#0" to="230541106#0"/>
    <trip id="veh78" type="veh_passenger" depart="301.14" departLane="best" from="-36865768" to="-36865770#0"/>
    <trip id="veh79" type="veh_passenger" depart="305.00" departLane="best" from="-1255350486#0" to="28909859"/>
    <trip id="veh80" type="veh_passenger" depart="308.86" departLane="best" from="-36792406#2" to="-52941618#4"/>
    <trip id="veh81" type="veh_passenger" depart="312.72" departLane="best" from="44850722" to="-1255350486#2"/>
    <trip id="veh82" type="veh_passenger" depart="316.58" departLane="best" from="439373184#1" to="-32068817#4"/>
    <trip id="veh83" type="veh_passenger" depart="320.44" departLane="best" from="36736000#13" to="27878148#5"/>
    <trip id="veh84" type="veh_passenger" depart="324.30" departLane="best" from="53059785#1" to="227205334"/>
    <trip id="veh85" type="veh_passenger" depart="328.17" departLane="best" from="1255350558" to="36736537#0"/>
    <trip id="veh87" type="veh_passenger" depart="335.89" departLane="best" from="-150836247#0" to="1255350555"/>
    <trip id="veh88" type="veh_passenger" depart="339.75" departLane="best" from="-121904037#2" to="-130596420"/>
    <trip id="veh89" type="veh_passenger" depart="343.61" departLane="best" from="356112250" to="32139485#0"/>
    <trip id="veh90" type="veh_passenger" depart="347.47" departLane="best" from="-8582335#6" to="-150836253#0"/>
    <trip id="veh91" type="veh_passenger" depart="351.33" departLane="best" from="1151626837#0" to="111678871"/>
    <trip id="veh92" type="veh_passenger" depart="355.19" departLane="best" from="45357072" to="-52941618#2"/>
    <trip id="veh93" type="veh_passenger" depart="359.05" departLane="best" from="-32783334#9" to="1255350596#0"/>
    <trip id="veh94" type="veh_passenger" depart="362.91" departLane="best" from="121904037#0" to="-8582335#9"/>
    <trip id="veh95" type="veh_passenger" depart="366.77" departLane="best" from="-48900315#5" to="53059777#0"/>
    <trip id="veh96" type="veh_passenger" depart="370.63" departLane="best" from="-1255350500" to="48900313#1"/>
    <trip id="veh97" type="veh_passenger" depart="374.49" departLane="best" from="175482167#2" to="-1184254523#0"/>
    <trip id="veh98" type="veh_passenger" depart="378.36" departLane="best" from="-9929914#4" to="40927608#4"/>
    <trip id="veh99" type="veh_passenger" depart="382.22" departLane="best" from="75744245#4" to="53059785#1"/>
    <trip id="veh100" type="veh_passenger" depart="386.08" departLane="best" from="439373178#3" to="-32068838#0"/>
    <trip id="veh101" type="veh_passenger" depart="389.94" departLane="best" from="1255350596#0" to="-36789027"/>
    <trip id="veh102" type="veh_passenger" depart="393.80" departLane="best" from="1151626836#2" to="-121904036#0"/>
    <trip id="veh103" type="veh_passenger" depart="397.66" departLane="best" departSpeed="max" from="1151348513" to="9929824#5"/>
    <trip id="veh104" type="veh_passenger" depart="401.52" departLane="best" from="530538146#3" to="36736537#0"/>
    <trip id="veh105" type="veh_passenger" depart="405.38" departLane="best" from="55358956#1" to="9929914#5"/>
    <trip id="veh106" type="veh_passenger" depart="409.24" departLane="best" from="36736537#0" to="35869001"/>
    <trip id="veh107" type="veh_passenger" depart="413.10" departLane="best" from="-32068524#0" to="10204536#4"/>
    <trip id="veh108" type="veh_passenger" depart="416.96" departLane="best" from="1255350559" to="36735997#2"/>
    <trip id="veh109" type="veh_passenger" depart="420.82" departLane="best" from="-121904032#5" to="230541105#2"/>
    <trip id="veh110" type="veh_passenger" depart="424.68" departLane="best" from="129857672" to="45357072"/>
    <trip id="veh111" type="veh_passenger" depart="428.54" departLane="best" from="-32068597#0" to="76811653#1"/>
    <trip id="veh112" type="veh_passenger" depart="432.41" departLane="best" from="1255350600" to="-36735995#2"/>
    <trip id="veh113" type="veh_passenger" depart="436.27" departLane="best" from="226852933#0" to="32139485#2"/>
    <trip id="veh114" type="veh_passenger" depart="440.13" departLane="best" from="40927608#4" to="-25832375#0"/>
    <trip id="veh115" type="veh_passenger" depart="443.99" departLane="best" from="50848414#1" to="-52941618#0"/>
    <trip id="veh116" type="veh_passenger" depart="447.85" departLane="best" from="121904036#0" to="230541105#1"/>
    <trip id="veh117" type="veh_passenger" depart="451.71" departLane="best" from="-150836247#2" to="53576630#0"/>
    <trip id="veh118" type="veh_passenger" depart="455.57" departLane="best" departSpeed="max" from="-36735996#5" to="35869001"/>
    <trip id="veh119" type="veh_passenger" depart="459.43" departLane="best" from="-439373187#0" to="122106500#2"/>
    <trip id="veh120" type="veh_passenger" depart="463.29" departLane="best" departSpeed="max" from="32068734#0" to="10205713#0"/>
    <trip id="veh121" type="veh_passenger" depart="467.15" departLane="best" departSpeed="max" from="10202435" to="36735997#4"/>
    <trip id="veh122" type="veh_passenger" depart="471.01" departLane="best" from="1255350487#0" to="1255350601#0"/>
    <trip id="veh123" type="veh_passenger" depart="474.87" departLane="best" from="-1255350500" to="-36789027"/>
    <trip id="veh124" type="veh_passenger" depart="478.73" departLane="best" from="530538146#3" to="53109782#1"/>
    <trip id="veh125" type="veh_passenger" depart="482.60" departLane="best" from="48900315#8" to="50848414#0"/>
    <trip id="veh126" type="veh_passenger" depart="486.46" departLane="best" from="-111678873#2" to="-32068817#0"/>
    <trip id="veh127" type="veh_passenger" depart="490.32" departLane="best" from="37568263#0" to="32783334#9"/>
    <trip id="veh128" type="veh_passenger" depart="494.18" departLane="best" from="-230541103#2" to="9929824#5"/>
    <trip id="veh129" type="veh_passenger" depart="498.04" departLane="best" from="-27878152#0" to="10204536#5"/>
    <trip id="veh130" type="veh_passenger" depart="501.90" departLane="best" departSpeed="max" from="36830822" to="10205565"/>
    <trip id="veh131" type="veh_passenger" depart="505.76" departLane="best" from="28909921" to="55358954#0"/>
    <trip id="veh132" type="veh_passenger" depart="509.62" departLane="best" from="-25832375#4" to="231315058"/>
    <trip id="veh133" type="veh_passenger" depart="513.48" departLane="best" from="152971153#1" to="225464720"/>
    <trip id="veh134" type="veh_passenger" depart="517.34" departLane="best" departSpeed="max" from="-530538149" to="25832375#4"/>
    <trip id="veh135" type="veh_passenger" depart="521.20" departLane="best" from="-32783334#5" to="-36736000#6"/>
    <trip id="veh136" type="veh_passenger" depart="525.06" departLane="best" from="25832375#0" to="-55358956#0"/>
    <trip id="veh137" type="veh_passenger" depart="528.92" departLane="best" from="439373178#0" to="150836247#0"/>
    <trip id="veh138" type="veh_passenger" depart="532.79" departLane="best" from="121904037#2" to="-8582335#6"/>
    <trip id="veh139" type="veh_passenger" depart="536.65" departLane="best" from="-10204536#1" to="36736000#2"/>
    <trip id="veh140" type="veh_passenger" depart="540.51" departLane="best" from="25832375#3" to="53059840"/>
    <trip id="veh141" type="veh_passenger" depart="544.37" departLane="best" from="36735995#4" to="225464720"/>
    <trip id="veh142" type="veh_passenger" depart="548.23" departLane="best" from="-121904038#0" to="10205565"/>
    <trip id="veh143" type="veh_passenger" depart="552.09" departLane="best" from="-1255350549" to="50848416#0"/>
    <trip id="veh144" type="veh_passenger" depart="555.95" departLane="best" from="51732890" to="225314605#0"/>
    <trip id="veh145" type="veh_passenger" depart="559.81" departLane="best" from="37568263#1" to="230541105#1"/>
    <trip id="veh146" type="veh_passenger" depart="563.67" departLane="best" departSpeed="max" from="-9929914#5" to="524599953#0"/>
    <trip id="veh147" type="veh_passenger" depart="567.53" departLane="best" from="36792406#1" to="48900313#1"/>
    <trip id="veh148" type="veh_passenger" depart="571.39" departLane="best" from="50848418#2" to="-36736534#2"/>
    <trip id="veh149" type="veh_passenger" depart="575.25" departLane="best" from="-48900315#5" to="-219839540"/>
    <trip id="veh150" type="veh_passenger" depart="579.11" departLane="best" from="36736537#0" to="50848417#0"/>
    <trip id="veh151" type="veh_passenger" depart="582.98" departLane="best" from="1184254523#1" to="27878152#0"/>
    <trip id="veh152" type="veh_passenger" depart="586.84" departLane="best" from="-32068524#0" to="53060862#1"/>
    <trip id="veh153" type="veh_passenger" depart="590.70" departLane="best" from="45357072" to="-8582335#9"/>
    <trip id="veh154" type="veh_passenger" depart="594.56" departLane="best" from="36826394" to="50848414#2"/>
    <trip id="veh156" type="veh_passenger" depart="602.28" departLane="best" from="10205713#1" to="53060862#2"/>
    <trip id="veh158" type="veh_passenger" depart="610.00" departLane="best" from="36826394" to="-630485225"/>
    <trip id="veh159" type="veh_passenger" depart="613.86" departLane="best" from="36736542#1" to="-225464735"/>
    <trip id="veh160" type="veh_passenger" depart="617.72" departLane="best" from="48900314#0" to="48804933#1"/>
    <trip id="veh161" type="veh_passenger" depart="621.58" departLane="best" from="36736000#9" to="36826406#1"/>
    <trip id="veh162" type="veh_passenger" depart="625.44" departLane="best" from="1255350548#0" to="10567622#0"/>
    <trip id="veh163" type="veh_passenger" depart="629.30" departLane="best" from="36792406#0" to="40927608#2"/>
    <trip id="veh165" type="veh_passenger" depart="637.03" departLane="best" from="-10204536#5" to="48900315#0"/>
    <trip id="veh166" type="veh_passenger" depart="640.89" departLane="best" from="75744245#3" to="8582335#9"/>
    <trip id="veh167" type="veh_passenger" depart="644.75" departLane="best" from="270326706#2" to="1255350486#1"/>
    <trip id="veh168" type="veh_passenger" depart="648.61" departLane="best" from="-8582335#2" to="219839539"/>
    <trip id="veh169" type="veh_passenger" depart="652.47" departLane="best" from="53060862#1" to="231315058"/>
    <trip id="veh170" type="veh_passenger" depart="656.33" departLane="best" from="160105973#1" to="32783334#8"/>
    <trip id="veh171" type="veh_passenger" depart="660.19" departLane="best" from="650577130#1" to="58942773#0"/>
    <trip id="veh172" type="veh_passenger" depart="664.05" departLane="best" from="-219839540" to="1255350556"/>
    <trip id="veh173" type="veh_passenger" depart="667.91" departLane="best" from="356112250" to="-10894151#2"/>
    <trip id="veh174" type="veh_passenger" depart="671.77" departLane="best" from="227205337" to="175482157#1"/>
    <trip id="veh175" type="veh_passenger" depart="675.63" departLane="best" departSpeed="max" from="1151348639#0" to="227205343#0"/>
    <trip id="veh176" type="veh_passenger" depart="679.49" departLane="best" from="52941618#2" to="356112250"/>
    <trip id="veh177" type="veh_passenger" depart="683.36" departLane="best" from="165329099#0" to="35869001"/>
    <trip id="veh178" type="veh_passenger" depart="687.22" departLane="best" from="36735995#4" to="-32068838#1"/>
    <trip id="veh179" type="veh_passenger" depart="691.08" departLane="best" from="111678869#1" to="-1255350486#0"/>
    <trip id="veh180" type="veh_passenger" depart="694.94" departLane="best" from="-32068524#0" to="111648753#3"/>
    <trip id="veh181" type="veh_passenger" depart="698.80" departLane="best" departSpeed="max" from="10202435" to="439373187#1"/>
    <trip id="veh182" type="veh_passenger" depart="702.66" departLane="best" from="-32783334#7" to="10205713#0"/>
    <trip id="veh183" type="veh_passenger" depart="706.52" departLane="best" departSpeed="max" from="-9929914#5" to="1255350541#0"/>
    <trip id="veh184" type="veh_passenger" depart="710.38" departLane="best" from="1151626837#0" to="10204536#3"/>
    <trip id="veh185" type="veh_passenger" depart="714.24" departLane="best" from="-23580971" to="1255350547#1"/>
    <trip id="veh186" type="veh_passenger" depart="718.10" departLane="best" from="53060862#2" to="32205669#0"/>
    <trip id="veh187" type="veh_passenger" depart="721.96" departLane="best" from="130596422#0" to="27878148#3"/>
    <trip id="veh188" type="veh_passenger" depart="725.82" departLane="best" from="-9929914#0" to="225314613"/>
    <trip id="veh189" type="veh_passenger" depart="729.68" departLane="best" from="-10204533" to="9929914#2"/>
    <trip id="veh190" type="veh_passenger" depart="733.55" departLane="best" from="122023118" to="230541103#2"/>
    <trip id="veh191" type="veh_passenger" depart="737.41" departLane="best" from="-27878152#1" to="1255350605"/>
    <trip id="veh192" type="veh_passenger" depart="741.27" departLane="best" from="1255350489" to="-36789027"/>
    <trip id="veh193" type="veh_passenger" depart="745.13" departLane="best" from="1255350558" to="-52941618#0"/>
    <trip id="veh194" type="veh_passenger" depart="748.99" departLane="best" from="36792406#1" to="-32068838#2"/>
    <trip id="veh195" type="veh_passenger" depart="752.85" departLane="best" from="130596420" to="175482167#2"/>
    <trip id="veh196" type="veh_passenger" depart="756.71" departLane="best" from="23580972#1" to="111678866#0"/>
    <trip id="veh197" type="veh_passenger" depart="760.57" departLane="best" departSpeed="max" from="36830822" to="36735997#4"/>
    <trip id="veh198" type="veh_passenger" depart="764.43" departLane="best" departSpeed="max" from="32068734#0" to="-36865770#1"/>
    <trip id="veh199" type="veh_passenger" depart="768.29" departLane="best" from="-36735996#0" to="-10894151#2"/>
    <trip id="veh200" type="veh_passenger" depart="772.15" departLane="best" from="-48900313#2" to="-130596424#0"/>
    <trip id="veh202" type="veh_passenger" depart="779.87" departLane="best" from="121904033#1" to="28909859"/>
    <trip id="veh203" type="veh_passenger" depart="783.74" departLane="best" from="-36735995#0" to="32783334#2"/>
    <trip id="veh204" type="veh_passenger" depart="787.60" departLane="best" from="1255350600" to="48900315#6"/>
    <trip id="veh205" type="veh_passenger" depart="791.46" departLane="best" from="-27878152#2" to="10204536#3"/>
    <trip id="veh207" type="veh_passenger" depart="799.18" departLane="best" from="152971153#0" to="1255350548#1"/>
    <trip id="veh208" type="veh_passenger" depart="803.04" departLane="best" from="32068817#2" to="76811652#1"/>
    <trip id="veh209" type="veh_passenger" depart="806.90" departLane="best" from="-135256131#0" to="-1184254523#0"/>
    <trip id="veh210" type="veh_passenger" depart="810.76" departLane="best" from="-48900315#5" to="439373187#1"/>
    <trip id="veh211" type="veh_passenger" depart="814.62" departLane="best" from="1255350547#0" to="36824056"/>
    <trip id="veh212" type="veh_passenger" depart="818.48" departLane="best" from="-32068597#0" to="9929824#5"/>
    <trip id="veh213" type="veh_passenger" depart="822.34" departLane="best" from="226852933#0" to="75744245#1"/>
    <trip id="veh214" type="veh_passenger" depart="826.20" departLane="best" from="50848414#3" to="27878148#1"/>
    <trip id="veh215" type="veh_passenger" depart="830.06" departLane="best" from="-32783334#6" to="76811652#0"/>
    <trip id="veh216" type="veh_passenger" depart="833.93" departLane="best" departSpeed="max" from="36865770#0" to="225314613"/>
    <trip id="veh217" type="veh_passenger" depart="837.79" departLane="best" from="50848418#0" to="36735997#0"/>
    <trip id="veh218" type="veh_passenger" depart="841.65" departLane="best" from="1255350559" to="-530538146#3"/>
    <trip id="veh219" type="veh_passenger" depart="845.51" departLane="best" from="48900315#2" to="28909866"/>
    <trip id="veh220" type="veh_passenger" depart="849.37" departLane="best" from="36736000#14" to="175482171#2"/>
    <trip id="veh221" type="veh_passenger" depart="853.23" departLane="best" departSpeed="max" from="230541107#0" to="8582335#3"/>
    <trip id="veh222" type="veh_passenger" depart="857.09" departLane="best" from="-1255350561" to="9929914#1"/>
    <trip id="veh224" type="veh_passenger" depart="864.81" departLane="best" from="165329099#1" to="27878152#2"/>
    <trip id="veh225" type="veh_passenger" depart="868.67" departLane="best" from="-40927608#0" to="32236937"/>
    <trip id="veh226" type="veh_passenger" depart="872.53" departLane="best" departSpeed="max" from="32236935#0" to="121904037#4"/>
    <trip id="veh227" type="veh_passenger" depart="876.39" departLane="best" from="-121904032#1" to="225314594#0"/>
    <trip id="veh228" type="veh_passenger" depart="880.25" departLane="best" from="121904034" to="-36736000#9"/>
    <trip id="veh229" type="veh_passenger" depart="884.12" departLane="best" from="121904036#1" to="-52941618#4"/>
    <trip id="veh230" type="veh_passenger" depart="887.98" departLane="best" from="225464730#1" to="32783334#1"/>
    <trip id="veh231" type="veh_passenger" depart="891.84" departLane="best" from="-439373187#1" to="-36736000#1"/>
    <trip id="veh232" type="veh_passenger" depart="895.70" departLane="best" departSpeed="max" from="1151348513" to="10204536#3"/>
    <trip id="veh233" type="veh_passenger" depart="899.56" departLane="best" from="10894151#3" to="36735997#5"/>
    <trip id="veh234" type="veh_passenger" depart="903.42" departLane="best" from="439373184#1" to="75744245#3"/>
    <trip id="veh235" type="veh_passenger" depart="907.28" departLane="best" from="-121904036#0" to="36735997#2"/>
    <trip id="veh236" type="veh_passenger" depart="911.14" departLane="best" from="45357072" to="25832375#2"/>
    <trip id="veh237" type="veh_passenger" depart="915.00" departLane="best" from="-36736000#7" to="-36865770#0"/>
    <trip id="veh239" type="veh_passenger" depart="922.72" departLane="best" from="10567622#0" to="32205669#2"/>
    <trip id="veh240" type="veh_passenger" depart="926.58" departLane="best" from="1151626837#1" to="-32068838#0"/>
    <trip id="veh241" type="veh_passenger" depart="930.44" departLane="best" from="1255350555" to="27878143#2"/>
    <trip id="veh243" type="veh_passenger" depart="938.17" departLane="best" from="-48900313#0" to="226852934"/>
    <trip id="veh245" type="veh_passenger" depart="945.89" departLane="best" from="-27878143#0" to="1255350603"/>
    <trip id="veh246" type="veh_passenger" depart="949.75" departLane="best" from="-1151348670" to="51732885#0"/>
    <trip id="veh247" type="veh_passenger" depart="953.61" departLane="best" from="36736000#11" to="111648753#0"/>
    <trip id="veh248" type="veh_passenger" depart="957.47" departLane="best" from="36736000#1" to="51732885#0"/>
    <trip id="veh250" type="veh_passenger" depart="965.19" departLane="best" from="52941618#0" to="-1255350605"/>
    <trip id="veh251" type="veh_passenger" depart="969.05" departLane="best" from="10894151#2" to="219919662"/>
    <trip id="veh252" type="veh_passenger" depart="972.91" departLane="best" from="-9929914#4" to="1151348573"/>
    <trip id="veh253" type="veh_passenger" depart="976.77" departLane="best" from="-27878148#5" to="36736534#2"/>
    <trip id="veh254" type="veh_passenger" depart="980.63" departLane="best" from="-27878148#7" to="36735997#6"/>
    <trip id="veh255" type="veh_passenger" depart="984.50" departLane="best" from="53576630#0" to="-36736000#14"/>
    <trip id="veh256" type="veh_passenger" depart="988.36" departLane="best" from="10894151#3" to="-32068734#0"/>
    <trip id="veh257" type="veh_passenger" depart="992.22" departLane="best" departSpeed="max" from="-233102567" to="-32068817#4"/>