<?xml version="1.0" encoding="UTF-8"?>

<!-- generated on 2024-04-03 00:22:46.892212 by osmWebWizard.py v1_19_0+0000-baa66a0f364
<configuration>
    <net-file value="C:\Users\Joonas\Downloads\sumo-win64-1.19.0\sumo-1.19.0\tools\2024-04-03-00-22-35\osm.net.xml.gz"/>
    <additional-files value="C:\Users\Joonas\Downloads\sumo-win64-1.19.0\sumo-1.19.0\tools\2024-04-03-00-22-35\osm_stops.add.xml,C:\Users\Joonas\Downloads\sumo-win64-1.19.0\sumo-1.19.0\tools\2024-04-03-00-22-35\osm_pt.rou.xml"/>
    <output-trip-file value="C:\Users\Joonas\Downloads\sumo-win64-1.19.0\sumo-1.19.0\tools\2024-04-03-00-22-35\osm.pedestrian.trips.xml"/>
    <route-file value="C:\Users\Joonas\Downloads\sumo-win64-1.19.0\sumo-1.19.0\tools\2024-04-03-00-22-35\osm.pedestrian.rou.xml"/>
    <persontrips value="True"/>
    <persontrip.walk-opposite-factor value="0.8"/>
    <prefix value="ped"/>
    <trip-attributes value="modes=&quot;public&quot;"/>
    <vehicle-class value="pedestrian"/>
    <fringe-factor value="1"/>
    <insertion-density value="10.0"/>
</configuration>
-->

<routes xmlns:xsi="http://www.w3.org/2001/XMLSchema-instance" xsi:noNamespaceSchemaLocation="http://sumo.dlr.de/xsd/routes_file.xsd">
    <vType id="ped_pedestrian" vClass="pedestrian"/>
    <person id="ped0" depart="0.00" type="ped_pedestrian">
        <personTrip from="165401081#9" to="-1057665317#1" modes="public"/>
    </person>
    <person id="ped1" depart="1.65" type="ped_pedestrian">
        <personTrip from="-864073560#2" to="-517054863#0" modes="public"/>
    </person>
    <person id="ped2" depart="3.30" type="ped_pedestrian">
        <personTrip from="225604195#1" to="195574216#1" modes="public"/>
    </person>
    <person id="ped3" depart="4.96" type="ped_pedestrian">
        <personTrip from="53059788#0" to="-1151348530#0" modes="public"/>
    </person>
    <person id="ped4" depart="6.61" type="ped_pedestrian">
        <personTrip from="1057670527" to="-1057678073#1" modes="public"/>
    </person>
    <person id="ped5" depart="8.26" type="ped_pedestrian">
        <personTrip from="-481836305#0" to="111707943#3" modes="public"/>
    </person>
    <person id="ped6" depart="9.91" type="ped_pedestrian">
        <personTrip from="-1057670494#1" to="-39544441#0" modes="public"/>
    </person>
    <person id="ped7" depart="11.56" type="ped_pedestrian">
        <personTrip from="184613809#9" to="119243449" modes="public"/>
    </person>
    <person id="ped8" depart="13.22" type="ped_pedestrian">
        <personTrip from="-50760934#1" to="122047139#5" modes="public"/>
    </person>
    <person id="ped9" depart="14.87" type="ped_pedestrian">
        <personTrip from="39544441#2" to="-1056911807" modes="public"/>
    </person>
    <person id="ped10" depart="16.52" type="ped_pedestrian">
        <personTrip from="39402299#2" to="195574269#0" modes="public"/>
    </person>
    <person id="ped11" depart="18.17" type="ped_pedestrian">
        <personTrip from="1056917728#2" to="-195978001#0" modes="public"/>
    </person>
    <person id="ped12" depart="19.83" type="ped_pedestrian">
        <personTrip from="867728335" to="1056917718" modes="public"/>
    </person>
    <person id="ped13" depart="21.48" type="ped_pedestrian">
        <personTrip from="-119243443#2" to="-121551922#2" modes="public"/>
    </person>
    <person id="ped14" depart="23.13" type="ped_pedestrian">
        <personTrip from="45356992#0" to="1255350594" modes="public"/>
    </person>
    <person id="ped15" depart="24.78" type="ped_pedestrian">
        <personTrip from="39402299#7" to="223983182#1" modes="public"/>
    </person>
    <person id="ped16" depart="26.43" type="ped_pedestrian">
        <personTrip from="1151348651" to="90044348#1" modes="public"/>
    </person>
    <person id="ped17" depart="28.09" type="ped_pedestrian">
        <personTrip from="1057161998#0" to="121559884#1" modes="public"/>
    </person>
    <person id="ped18" depart="29.74" type="ped_pedestrian">
        <personTrip from="42412169#0" to="141214007#4" modes="public"/>
    </person>
    <person id="ped19" depart="31.39" type="ped_pedestrian">
        <personTrip from="51732893#2" to="121785142#3" modes="public"/>
    </person>
    <person id="ped20" depart="33.04" type="ped_pedestrian">
        <personTrip from="195590601" to="-1069051282#8" modes="public"/>
    </person>
    <person id="ped21" depart="34.69" type="ped_pedestrian">
        <personTrip from="-524594473#6" to="-949814221" modes="public"/>
    </person>
    <person id="ped22" depart="36.35" type="ped_pedestrian">
        <personTrip from="-1126962376#0" to="-530538149" modes="public"/>
    </person>
    <person id="ped23" depart="38.00" type="ped_pedestrian">
        <personTrip from="-122047136#4" to="-867728325#2" modes="public"/>
    </person>
    <person id="ped24" depart="39.65" type="ped_pedestrian">
        <personTrip from="165380302#2" to="1057098065#0" modes="public"/>
    </person>
    <person id="ped25" depart="41.30" type="ped_pedestrian">
        <personTrip from="1057110778#1" to="-41191066#6" modes="public"/>
    </person>
    <person id="ped26" depart="42.95" type="ped_pedestrian">
        <personTrip from="-845864107#1" to="845864108" modes="public"/>
    </person>
    <person id="ped27" depart="44.61" type="ped_pedestrian">
        <personTrip from="184613809#0" to="131884933" modes="public"/>
    </person>
    <person id="ped28" depart="46.26" type="ped_pedestrian">
        <personTrip from="-232934673#7" to="223983180" modes="public"/>
    </person>
    <person id="ped29" depart="47.91" type="ped_pedestrian">
        <personTrip from="-230541124" to="1057162000#0" modes="public"/>
    </person>
    <person id="ped30" depart="49.56" type="ped_pedestrian">
        <personTrip from="949814219#0" to="165401082#1" modes="public"/>
    </person>
    <person id="ped31" depart="51.21" type="ped_pedestrian">
        <personTrip from="121650525#0" to="195574239#1" modes="public"/>
    </person>
    <person id="ped32" depart="52.87" type="ped_pedestrian">
        <personTrip from="439373198#1" to="32064839#1" modes="public"/>
    </person>
    <person id="ped33" depart="54.52" type="ped_pedestrian">
        <personTrip from="-524596179#2" to="-1057678094#0" modes="public"/>
    </person>
    <person id="ped34" depart="56.17" type="ped_pedestrian">
        <personTrip from="1017372581#4" to="-845864108" modes="public"/>
    </person>
    <person id="ped35" depart="57.82" type="ped_pedestrian">
        <personTrip from="-42412177#0" to="854852087#2" modes="public"/>
    </person>
    <person id="ped36" depart="59.48" type="ped_pedestrian">
        <personTrip from="52994545" to="1017372581#10" modes="public"/>
    </person>
    <person id="ped37" depart="61.13" type="ped_pedestrian">
        <personTrip from="194961993#1" to="1057175493" modes="public"/>
    </person>
    <person id="ped38" depart="62.78" type="ped_pedestrian">
        <personTrip from="55498488#10" to="1081879517#1" modes="public"/>
    </person>
    <person id="ped39" depart="64.43" type="ped_pedestrian">
        <personTrip from="-75869350#0" to="-55498471#4" modes="public"/>
    </person>
    <person id="ped40" depart="66.08" type="ped_pedestrian">
        <personTrip from="121651802#4" to="-75512306#4" modes="public"/>
    </person>
    <person id="ped41" depart="67.74" type="ped_pedestrian">
        <personTrip from="122047135#1" to="53276393#4" modes="public"/>
    </person>
    <person id="ped42" depart="69.39" type="ped_pedestrian">
        <personTrip from="1057175503" to="-481836305#3" modes="public"/>
    </person>
    <person id="ped43" depart="71.04" type="ped_pedestrian">
        <personTrip from="98581134#2" to="1126962371#2" modes="public"/>
    </person>
    <person id="ped44" depart="72.69" type="ped_pedestrian">
        <personTrip from="-1151348659#2" to="-1081875345#0" modes="public"/>
    </person>
    <person id="ped45" depart="74.34" type="ped_pedestrian">
        <personTrip from="-128297591#0" to="153200751#3" modes="public"/>
    </person>
    <person id="ped46" depart="76.00" type="ped_pedestrian">
        <personTrip from="32205651" to="1057671014#0" modes="public"/>
    </person>
    <person id="ped47" depart="77.65" type="ped_pedestrian">
        <personTrip from="-1106816644#1" to="1057162002#4" modes="public"/>
    </person>
    <person id="ped48" depart="79.30" type="ped_pedestrian">
        <personTrip from="98316242#1" to="1126980919" modes="public"/>
    </person>
    <person id="ped49" depart="80.95" type="ped_pedestrian">
        <personTrip from="90035407#4" to="517054865#1" modes="public"/>
    </person>
    <person id="ped50" depart="82.60" type="ped_pedestrian">
        <personTrip from="-1057164595" to="195601989#0" modes="public"/>
    </person>
    <person id="ped51" depart="84.26" type="ped_pedestrian">
        <personTrip from="195574233#3" to="1151348653#1" modes="public"/>
    </person>
    <person id="ped52" depart="85.91" type="ped_pedestrian">
        <personTrip from="-845864107#0" to="165401084#1" modes="public"/>
    </person>
    <person id="ped53" depart="87.56" type="ped_pedestrian">
        <personTrip from="-128297595#2" to="1057919243#1" modes="public"/>
    </person>
    <person id="ped54" depart="89.21" type="ped_pedestrian">
        <personTrip from="1081875350#0" to="867728328#1" modes="public"/>
    </person>
    <person id="ped55" depart="90.87" type="ped_pedestrian">
        <personTrip from="52994538#4" to="-75512306#6" modes="public"/>
    </person>
    <person id="ped56" depart="92.52" type="ped_pedestrian">
        <personTrip from="111636792#1" to="-32065154#0" modes="public"/>
    </person>
    <person id="ped57" depart="94.17" type="ped_pedestrian">
        <personTrip from="55498482#1" to="52916167#0" modes="public"/>
    </person>
    <person id="ped58" depart="95.82" type="ped_pedestrian">
        <personTrip from="1016210603#2" to="165401081#7" modes="public"/>
    </person>
    <person id="ped59" depart="97.47" type="ped_pedestrian">
        <personTrip from="131884932" to="-195601989#2" modes="public"/>
    </person>
    <person id="ped60" depart="99.13" type="ped_pedestrian">
        <personTrip from="232934673#18" to="1151348672#3" modes="public"/>
    </person>
    <person id="ped61" depart="100.78" type="ped_pedestrian">
        <personTrip from="32068927#0" to="113805555#0" modes="public"/>
    </person>
    <person id="ped62" depart="102.43" type="ped_pedestrian">
        <personTrip from="-1016216428#1" to="1018611131" modes="public"/>
    </person>
    <person id="ped63" depart="104.08" type="ped_pedestrian">
        <personTrip from="-1057649114#1" to="75512306#6" modes="public"/>
    </person>
    <person id="ped64" depart="105.73" type="ped_pedestrian">
        <personTrip from="530538146#2" to="42412169#8" modes="public"/>
    </person>
    <person id="ped65" depart="107.39" type="ped_pedestrian">
        <personTrip from="1017199426#2" to="-1082145903" modes="public"/>
    </person>
    <person id="ped66" depart="109.04" type="ped_pedestrian">
        <personTrip from="530538143#2" to="86207559#0" modes="public"/>
    </person>
    <person id="ped67" depart="110.69" type="ped_pedestrian">
        <personTrip from="-1126980915#3" to="1106816647#1" modes="public"/>
    </person>
    <person id="ped68" depart="112.34" type="ped_pedestrian">
        <personTrip from="-1107067617#1" to="232934673#11" modes="public"/>
    </person>
    <person id="ped69" depart="113.99" type="ped_pedestrian">
        <personTrip from="233901261#3" to="-165401082#0" modes="public"/>
    </person>
    <person id="ped70" depart="115.65" type="ped_pedestrian">
        <personTrip from="1083289614#1" to="121551922#2" modes="public"/>
    </person>
    <person id="ped71" depart="117.30" type="ped_pedestrian">
        <personTrip from="-75869350#0" to="52941634#1" modes="public"/>
    </person>
    <person id="ped72" depart="118.95" type="ped_pedestrian">
        <personTrip from="1057671018" to="-42412178#1" modes="public"/>
    </person>
    <person id="ped73" depart="120.60" type="ped_pedestrian">
        <personTrip from="1151348672#3" to="223984810#0" modes="public"/>
    </person>
    <person id="ped74" depart="122.26" type="ped_pedestrian">
        <personTrip from="-39544443#0" to="1017202290" modes="public"/>
    </person>
    <person id="ped75" depart="123.91" type="ped_pedestrian">
        <personTrip from="98316223#1" to="184613809#9" modes="public"/>
    </person>
    <person id="ped76" depart="125.56" type="ped_pedestrian">
        <personTrip from="1058056427#0" to="1126973684#0" modes="public"/>
    </person>
    <person id="ped77" depart="127.21" type="ped_pedestrian">
        <personTrip from="-150836247#1" to="-518904763" modes="public"/>
    </person>
    <person id="ped78" depart="128.86" type="ped_pedestrian">
        <personTrip from="1056917722" to="122047139#2" modes="public"/>
    </person>
    <person id="ped79" depart="130.52" type="ped_pedestrian">
        <personTrip from="-524604526#2" to="-50760934#0" modes="public"/>
    </person>
    <person id="ped80" depart="132.17" type="ped_pedestrian">
        <personTrip from="-1109647295#0" to="163909661#3" modes="public"/>
    </person>
    <person id="ped81" depart="133.82" type="ped_pedestrian">
        <personTrip from="-524596179#1" to="55498471#12" modes="public"/>
    </person>
    <person id="ped82" depart="135.47" type="ped_pedestrian">
        <personTrip from="517054861" to="-1109647293" modes="public"/>
    </person>
    <person id="ped83" depart="137.12" type="ped_pedestrian">
        <personTrip from="-53059780#6" to="194962019" modes="public"/>
    </person>
    <person id="ped84" depart="138.78" type="ped_pedestrian">
        <personTrip from="-439373187#2" to="-176189242#6" modes="public"/>
    </person>
    <person id="ped85" depart="140.43" type="ped_pedestrian">
        <personTrip from="845864107#0" to="121785124#6" modes="public"/>
    </person>
    <person id="ped86" depart="142.08" type="ped_pedestrian">
        <personTrip from="1082148693#4" to="32082297#7" modes="public"/>
    </person>
    <person id="ped87" depart="143.73" type="ped_pedestrian">
        <personTrip from="39402300#3" to="-38001616#0" modes="public"/>
    </person>
    <person id="ped88" depart="145.38" type="ped_pedestrian">
        <personTrip from="-121646885#0" to="1057916013#0" modes="public"/>
    </person>
    <person id="ped89" depart="147.04" type="ped_pedestrian">
        <personTrip from="1057671019#0" to="1082145887#1" modes="public"/>
    </person>
    <person id="ped90" depart="148.69" type="ped_pedestrian">
        <personTrip from="198148466#3" to="194962023#0" modes="public"/>
    </person>
    <person id="ped91" depart="150.34" type="ped_pedestrian">
        <personTrip from="949810257#1" to="-122023131#0" modes="public"/>
    </person>
    <person id="ped92" depart="151.99" type="ped_pedestrian">
        <personTrip from="1057649111#1" to="1056917727" modes="public"/>
    </person>
    <person id="ped93" depart="153.64" type="ped_pedestrian">
        <personTrip from="51732893#2" to="-55498474#2" modes="public"/>
    </person>
    <person id="ped94" depart="155.30" type="ped_pedestrian">
        <personTrip from="-38001616#0" to="1069303845#3" modes="public"/>
    </person>
    <person id="ped95" depart="156.95" type="ped_pedestrian">
        <personTrip from="1057670527" to="-867728339" modes="public"/>
    </person>
    <person id="ped96" depart="158.60" type="ped_pedestrian">
        <personTrip from="-55498479" to="622019344#1" modes="public"/>
    </person>
    <person id="ped97" depart="160.25" type="ped_pedestrian">
        <personTrip from="10650150#4" to="51732893#1" modes="public"/>
    </person>
    <person id="ped98" depart="161.91" type="ped_pedestrian">
        <personTrip from="121559878#1" to="-1082143469#0" modes="public"/>
    </person>
    <person id="ped99" depart="163.56" type="ped_pedestrian">
        <personTrip from="997744182#0" to="42416682#2" modes="public"/>
    </person>
    <person id="ped100" depart="165.21" type="ped_pedestrian">
        <personTrip from="87605994" to="668997684#4" modes="public"/>
    </person>
    <person id="ped101" depart="166.86" type="ped_pedestrian">
        <personTrip from="458361857" to="-232934668#2" modes="public"/>
    </person>
    <person id="ped102" depart="168.51" type="ped_pedestrian">
        <personTrip from="1106816647#0" to="-439373187#0" modes="public"/>
    </person>
    <person id="ped103" depart="170.17" type="ped_pedestrian">
        <personTrip from="1057178381" to="-1083289614#0" modes="public"/>
    </person>
    <person id="ped104" depart="171.82" type="ped_pedestrian">
        <personTrip from="1057161998#1" to="949810258#4" modes="public"/>
    </person>
    <person id="ped105" depart="173.47" type="ped_pedestrian">
        <personTrip from="-75869350#1" to="32082297#5" modes="public"/>
    </person>
    <person id="ped106" depart="175.12" type="ped_pedestrian">
        <personTrip from="1081875353" to="1057671017" modes="public"/>
    </person>
    <person id="ped107" depart="176.77" type="ped_pedestrian">
        <personTrip from="867728336" to="98316233#0" modes="public"/>
    </person>
    <person id="ped108" depart="178.43" type="ped_pedestrian">
        <personTrip from="121650518#0" to="195601981" modes="public"/>
    </person>
    <person id="ped109" depart="180.08" type="ped_pedestrian">
        <personTrip from="-195977688#0" to="1016210602#4" modes="public"/>
    </person>
    <person id="ped110" depart="181.73" type="ped_pedestrian">
        <personTrip from="87605985#7" to="121904047#0" modes="public"/>
    </person>
    <person id="ped111" depart="183.38" type="ped_pedestrian">
        <personTrip from="116624743#3" to="229036774#4" modes="public"/>
    </person>
    <person id="ped112" depart="185.03" type="ped_pedestrian">
        <personTrip from="-1082145901#1" to="122023145#1" modes="public"/>
    </person>
    <person id="ped113" depart="186.69" type="ped_pedestrian">
        <personTrip from="111678870#0" to="496514190" modes="public"/>
    </person>
    <person id="ped114" depart="188.34" type="ped_pedestrian">
        <personTrip from="-223984810#1" to="867728349#0" modes="public"/>
    </person>
    <person id="ped115" depart="189.99" type="ped_pedestrian">
        <personTrip from="-1126962376#1" to="-37717677#10" modes="public"/>
    </person>
    <person id="ped116" depart="191.64" type="ped_pedestrian">
        <personTrip from="122116609#3" to="195412366#4" modes="public"/>
    </person>
    <person id="ped117" depart="193.30" type="ped_pedestrian">
        <personTrip from="-53059778#5" to="-142296710#6" modes="public"/>
    </person>
    <person id="ped118" depart="194.95" type="ped_pedestrian">
        <personTrip from="53059784#1" to="-55498471#3" modes="public"/>
    </person>
    <person id="ped119" depart="196.60" type="ped_pedestrian">
        <personTrip from="122116609#1" to="142296710#3" modes="public"/>
    </person>
    <person id="ped120" depart="198.25" type="ped_pedestrian">
        <personTrip from="1057670514" to="122023131#0" modes="public"/>
    </person>
    <person id="ped121" depart="199.90" type="ped_pedestrian">
        <personTrip from="1126977273#3" to="844294543" modes="public"/>
    </person>
    <person id="ped122" depart="201.56" type="ped_pedestrian">
        <personTrip from="-40584733#5" to="195601976#0" modes="public"/>
    </person>
    <person id="ped123" depart="203.21" type="ped_pedestrian">
        <personTrip from="-53059783#1" to="1057175494" modes="public"/>
    </person>
    <person id="ped124" depart="204.86" type="ped_pedestrian">
        <personTrip from="194962021#2" to="1016210606#3" modes="public"/>
    </person>
    <person id="ped125" depart="206.51" type="ped_pedestrian">
        <personTrip from="1017372581#7" to="230483571#4" modes="public"/>
    </person>
    <person id="ped126" depart="208.16" type="ped_pedestrian">
        <personTrip from="-111636792#2" to="1081879516#8" modes="public"/>
    </person>
    <person id="ped127" depart="209.82" type="ped_pedestrian">
        <personTrip from="98581134#6" to="98316242#1" modes="public"/>
    </person>
    <person id="ped128" depart="211.47" type="ped_pedestrian">
        <personTrip from="-111636792#4" to="-432848365#0" modes="public"/>
    </person>
    <person id="ped129" depart="213.12" type="ped_pedestrian">
        <personTrip from="-75869350#1" to="78412351#1" modes="public"/>
    </person>
    <person id="ped130" depart="214.77" type="ped_pedestrian">
        <personTrip from="53057992#1" to="530538146#4" modes="public"/>
    </person>
    <person id="ped131" depart="216.42" type="ped_pedestrian">
        <personTrip from="1057110773#1" to="-225133238" modes="public"/>
    </person>
    <person id="ped132" depart="218.08" type="ped_pedestrian">
        <personTrip from="42412178#0" to="195590596" modes="public"/>
    </person>
    <person id="ped133" depart="219.73" type="ped_pedestrian">
        <personTrip from="13717824#5" to="949810263#1" modes="public"/>
    </person>
    <person id="ped134" depart="221.38" type="ped_pedestrian">
        <personTrip from="184877684#1" to="-1057098062#1" modes="public"/>
    </person>
    <person id="ped135" depart="223.03" type="ped_pedestrian">
        <personTrip from="40927593#0" to="1016210606#0" modes="public"/>
    </person>
    <person id="ped136" depart="224.68" type="ped_pedestrian">
        <personTrip from="194962006#3" to="845864113#4" modes="public"/>
    </person>
    <person id="ped137" depart="226.34" type="ped_pedestrian">
        <personTrip from="-184501607#1" to="-140955448#0" modes="public"/>
    </person>
    <person id="ped138" depart="227.99" type="ped_pedestrian">
        <personTrip from="-122106502#6" to="121650498#0" modes="public"/>
    </person>
    <person id="ped139" depart="229.64" type="ped_pedestrian">
        <personTrip from="-854852087#0" to="128297594#2" modes="public"/>
    </person>
    <person id="ped140" depart="231.29" type="ped_pedestrian">
        <personTrip from="195601979#0" to="-40584733#2" modes="public"/>
    </person>
    <person id="ped141" depart="232.95" type="ped_pedestrian">
        <personTrip from="163909670" to="-75512306#8" modes="public"/>
    </person>
    <person id="ped142" depart="234.60" type="ped_pedestrian">
        <personTrip from="1107065405#0" to="55498471#12" modes="public"/>
    </person>
    <person id="ped143" depart="236.25" type="ped_pedestrian">
        <personTrip from="44842049#1" to="-119243443#0" modes="public"/>
    </person>
    <person id="ped144" depart="237.90" type="ped_pedestrian">
        <personTrip from="1057671019#0" to="-867728322#0" modes="public"/>
    </person>
    <person id="ped145" depart="239.55" type="ped_pedestrian">
        <personTrip from="-1017372578#1" to="234176683#2" modes="public"/>
    </person>
    <person id="ped146" depart="241.21" type="ped_pedestrian">
        <personTrip from="165401081#10" to="-75512306#1" modes="public"/>
    </person>
    <person id="ped147" depart="242.86" type="ped_pedestrian">
        <personTrip from="229036767#10" to="121559884#0" modes="public"/>
    </person>
    <person id="ped148" depart="244.51" type="ped_pedestrian">
        <personTrip from="1057683141" to="-1057098067" modes="public"/>
    </person>
    <person id="ped149" depart="246.16" type="ped_pedestrian">
        <personTrip from="-111678870#2" to="53059778#12" modes="public"/>
    </person>
    <person id="ped150" depart="247.81" type="ped_pedestrian">
        <personTrip from="53581388#4" to="1206863342#1" modes="public"/>
    </person>
    <person id="ped151" depart="249.47" type="ped_pedestrian">
        <personTrip from="42412179#1" to="121934319#7" modes="public"/>
    </person>
    <person id="ped152" depart="251.12" type="ped_pedestrian">
        <personTrip from="-195601970#1" to="-165401081#7" modes="public"/>
    </person>
    <person id="ped153" depart="252.77" type="ped_pedestrian">
        <personTrip from="1017199431#1" to="53276396#2" modes="public"/>
    </person>
    <person id="ped154" depart="254.42" type="ped_pedestrian">
        <personTrip from="37717677#11" to="517054865#0" modes="public"/>
    </person>
    <person id="ped155" depart="256.07" type="ped_pedestrian">
        <personTrip from="53276396#1" to="-41191066#8" modes="public"/>
    </person>
    <person id="ped156" depart="257.73" type="ped_pedestrian">
        <personTrip from="-55498476#2" to="-122047139#0" modes="public"/>
    </person>
    <person id="ped157" depart="259.38" type="ped_pedestrian">
        <personTrip from="32069016#1" to="53059778#4" modes="public"/>
    </person>
    <person id="ped158" depart="261.03" type="ped_pedestrian">
        <personTrip from="1057658767" to="142296710#7" modes="public"/>
    </person>
    <person id="ped159" depart="262.68" type="ped_pedestrian">
        <personTrip from="-195977681#1" to="75868198#0" modes="public"/>
    </person>
    <person id="ped160" depart="264.34" type="ped_pedestrian">
        <personTrip from="524594170#4" to="90044371#10" modes="public"/>
    </person>
    <person id="ped161" depart="265.99" type="ped_pedestrian">
        <personTrip from="39544441#7" to="53057993#1" modes="public"/>
    </person>
    <person id="ped162" depart="267.64" type="ped_pedestrian">
        <personTrip from="-1057665317#0" to="225604196#0" modes="public"/>
    </person>
    <person id="ped163" depart="269.29" type="ped_pedestrian">
        <personTrip from="104970538#0" to="75869347#0" modes="public"/>
    </person>
    <person id="ped164" depart="270.94" type="ped_pedestrian">
        <personTrip from="38839655#2" to="524594170#2" modes="public"/>
    </person>
    <person id="ped165" depart="272.60" type="ped_pedestrian">
        <personTrip from="39544441#7" to="-845864107#0" modes="public"/>
    </person>
    <person id="ped166" depart="274.25" type="ped_pedestrian">
        <personTrip from="32091802#5" to="-122116616#0" modes="public"/>
    </person>
    <person id="ped167" depart="275.90" type="ped_pedestrian">
        <personTrip from="52941634#0" to="51362355#9" modes="public"/>
    </person>
    <person id="ped168" depart="277.55" type="ped_pedestrian">
        <personTrip from="-51362354#1" to="40584737#1" modes="public"/>
    </person>
    <person id="ped169" depart="279.20" type="ped_pedestrian">
        <personTrip from="1082141412#1" to="1017199424#2" modes="public"/>
    </person>
    <person id="ped170" depart="280.86" type="ped_pedestrian">
        <personTrip from="37717677#0" to="-524594473#5" modes="public"/>
    </person>
    <person id="ped171" depart="282.51" type="ped_pedestrian">
        <personTrip from="-1057661575" to="-38839657#2" modes="public"/>
    </person>
    <person id="ped172" depart="284.16" type="ped_pedestrian">
        <personTrip from="1031319055#0" to="524594170#3" modes="public"/>
    </person>
    <person id="ped173" depart="285.81" type="ped_pedestrian">
        <personTrip from="87605985#0" to="-867728341#1" modes="public"/>
    </person>
    <person id="ped174" depart="287.46" type="ped_pedestrian">
        <personTrip from="169781564#0" to="1057175504" modes="public"/>
    </person>
    <person id="ped175" depart="289.12" type="ped_pedestrian">
        <personTrip from="90513827#6" to="1151348651" modes="public"/>
    </person>
    <person id="ped176" depart="290.77" type="ped_pedestrian">
        <personTrip from="845864117#0" to="-140955448#0" modes="public"/>
    </person>
    <person id="ped177" depart="292.42" type="ped_pedestrian">
        <personTrip from="90035407#1" to="-284793342" modes="public"/>
    </person>
    <person id="ped178" depart="294.07" type="ped_pedestrian">
        <personTrip from="867728351#1" to="-75869350#2" modes="public"/>
    </person>
    <person id="ped179" depart="295.72" type="ped_pedestrian">
        <personTrip from="-122116616#1" to="1057919243#0" modes="public"/>
    </person>
    <person id="ped180" depart="297.38" type="ped_pedestrian">
        <personTrip from="198148466#1" to="1017372580#1" modes="public"/>
    </person>
    <person id="ped181" depart="299.03" type="ped_pedestrian">
        <personTrip from="129437897#0" to="1126962376#0" modes="public"/>
    </person>
    <person id="ped182" depart="300.68" type="ped_pedestrian">
        <personTrip from="1057164594#1" to="121785142#0" modes="public"/>
    </person>
    <person id="ped183" depart="302.33" type="ped_pedestrian">
        <personTrip from="-55498488#7" to="195592321#2" modes="public"/>
    </person>
    <person id="ped184" depart="303.99" type="ped_pedestrian">
        <personTrip from="-1017199418#3" to="668997684#1" modes="public"/>
    </person>
    <person id="ped185" depart="305.64" type="ped_pedestrian">
        <personTrip from="1151348672#0" to="195601984#0" modes="public"/>
    </person>
    <person id="ped186" depart="307.29" type="ped_pedestrian">
        <personTrip from="229036767#12" to="194962020#5" modes="public"/>
    </person>
    <person id="ped187" depart="308.94" type="ped_pedestrian">
        <personTrip from="1057098063#2" to="-1109645668#0" modes="public"/>
    </person>
    <person id="ped188" depart="310.59" type="ped_pedestrian">
        <personTrip from="194962008#3" to="1047689787" modes="public"/>
    </person>
    <person id="ped189" depart="312.25" type="ped_pedestrian">
        <personTrip from="1017372580#2" to="45356992#2" modes="public"/>
    </person>
    <person id="ped190" depart="313.90" type="ped_pedestrian">
        <personTrip from="195601984#1" to="1016210606#4" modes="public"/>
    </person>
    <person id="ped191" depart="315.55" type="ped_pedestrian">
        <personTrip from="1017202287#0" to="1057661573#2" modes="public"/>
    </person>
    <person id="ped192" depart="317.20" type="ped_pedestrian">