<?xml version="1.0" encoding="UTF-8"?>

<!-- generated on 2024-04-03 00:22:42.907337 by osmWebWizard.py v1_19_0+0000-baa66a0f364
<configuration>
    <net-file value="C:\Users\Joonas\Downloads\sumo-win64-1.19.0\sumo-1.19.0\tools\2024-04-03-00-22-35\osm.net.xml.gz"/>
    <ptlines-file value="C:\Users\Joonas\Downloads\sumo-win64-1.19.0\sumo-1.19.0\tools\2024-04-03-00-22-35\osm_ptlines.xml"/>
    <ptstops-file value="C:\Users\Joonas\Downloads\sumo-win64-1.19.0\sumo-1.19.0\tools\2024-04-03-00-22-35\osm_stops.add.xml"/>
    <output-file value="C:\Users\Joonas\Downloads\sumo-win64-1.19.0\sumo-1.19.0\tools\2024-04-03-00-22-35\osm_pt.rou.xml"/>
    <stopinfos-file value="C:\Users\Joonas\Downloads\sumo-win64-1.19.0\sumo-1.19.0\tools\2024-04-03-00-22-35\stopinfos.xml"/>
    <routes-file value="C:\Users\Joonas\Downloads\sumo-win64-1.19.0\sumo-1.19.0\tools\2024-04-03-00-22-35\vehroutes.xml"/>
    <trips-file value="C:\Users\Joonas\Downloads\sumo-win64-1.19.0\sumo-1.19.0\tools\2024-04-03-00-22-35\trips.trips.xml"/>
    <min-stops value="0"/>
    <extend-to-fringe value="True"/>
    <random-begin value="True"/>
    <seed value="42"/>
    <ignore-errors value="True"/>
    <vtype-prefix value="pt_"/>
    <verbose value="True"/>
</configuration>
-->

<routes xmlns:xsi="http://www.w3.org/2001/XMLSchema-instance" xsi:noNamespaceSchemaLocation="http://sumo.dlr.de/xsd/routes_file.xsd">
    <vType id="pt_bus" vClass="bus"/>
    <vType id="pt_tram" vClass="tram"/>
    <vType id="pt_train" vClass="rail"/>
    <vType id="pt_subway" vClass="rail_urban"/>
    <vType id="pt_light_rail" vClass="rail_urban"/>
    <vType id="pt_monorail" vClass="rail_urban"/>
    <vType id="pt_trolleybus" vClass="bus"/>
    <vType id="pt_minibus" vClass="bus"/>
    <vType id="pt_share_taxi" vClass="taxi"/>
    <vType id="pt_aerialway" vClass="rail_urban" length="2.5" width="2" personCapacity="4"/>
    <vType id="pt_ferry" vClass="ship"/>
    <route id="pt_bus_2:1" edges="129857672 36736000#0 36736000#1 36736000#2 36736000#3 36736000#4 36736000#5 36736000#6 36736000#7 36736000#8 36736000#9 36736000#10 36736000#11 36736000#12 36736000#13 36736000#14 36736534#0 36736534#1 36736534#2 225314605#0 225314605#2 36736537#0 36736538 53109782#1 32236937" >
        <stop busStop="427144109" duration="20" until="39.0"/> <!-- Jyväskylä Keskusta 4 -->
        <stop busStop="650774425" duration="20" until="127.0"/> <!-- Urhonkatu 2 -->
        <stop busStop="659578624" duration="20" until="396.0"/> <!-- Tourunsilta 2 -->
    </route>
    <route id="pt_bus_40:0" edges="79761424#0 79761424#1 45356987#0 45356987#1 129437897#0 129437897#1 129437897#2 53259724 45356986 -45356991#2 -45356991#1 -36768024#1 -36768024#0 44850722 1255350597 160105973#0 160105973#1 199260468#1 1255350489 75744245#1 75744245#3 75744245#4 135256124#0 135256124#2 230541105#0 230541105#1 230541105#2 1255350541#0 1255350541#1 219919662 36865768 219839536#0 219839536#1 219839544 219839531#0 219839531#1 135256136 219839539" >
        <stop busStop="427741944" duration="20" until="558.0"/> <!-- Kauppatori 11 -->
    </route>
    <route id="pt_bus_1:1" edges="32236935#0 48900317#0 48900317#1 1255350593 1255350596#0 1255350596#1 9828298#0 76811652#0 76811652#1 356112250 -1255350601#0 -1255350600 -10207176#1 -10207176#0 -36736000#14 -36736000#13 -36736000#12 -36736000#11 36792406#0 36792406#1 36792406#2 1255350602 1184254523#1 -357738872 -1255350487#1 -121904036#1 -121904036#0 76811653#0 76811653#1 51732885#0 51732885#1 121904032#1 121904032#2 121904032#3 121904032#4 121904032#5 121904032#6 121904038#0 121904038#1 130596423#0 130596423#1 1139132979#0 1139132979#1 121904037#0 121904037#1 121904037#2 121904037#3 121904037#4 121904037#5 10204536#0 10204536#1 10204536#2 10204536#3 10204536#4 10204536#5 10204536#6 36735997#0 36735997#1 36735997#2 36735997#3 36735997#4 36735997#5 36735997#6" >
        <stop busStop="-427144104" duration="20" until="220.0"/> <!-- Urhonkatu 1 -->
    </route>
    <route id="pt_bus_1M:0" edges="-36736000#12 -36736000#11 36736000#11 36736000#12 36736000#13 36736000#14 36736534#0 36736534#1 36736534#2 225314605#0 225314605#2 75739000 75744245#1 75744245#3 75744245#4 135256124#0 135256124#2 230541105#0 230541105#1 230541105#2 1255350541#0 1255350541#1 219919662 36865768 219839536#0 219839536#1 219839544 219839531#0 219839531#1 135256136 219839539" >
        <stop busStop="-427144104" duration="20" until="42.0"/> <!-- Urhonkatu 1 -->
        <stop busStop="427741946" duration="20" until="557.0"/> <!-- Kauppatori 12 -->
    </route>
    <route id="pt_bus_25:0" edges="1255350605 25832375#0 25832375#1 25832375#2 25832375#3 25832375#4 25832375#5 -10204536#6 -10204536#5 -10204536#4 -10204536#3 -10204536#2 -10204536#1 -10204536#0 -121904037#5 -121904037#4 -121904037#3 -121904037#2 -121904037#1 -121904037#0 -1139132979#1 -1139132979#0 -130596423#1 -130596423#0 -121904038#1 -121904038#0 -121904032#6 -121904032#5 -121904032#4 -121904032#3 -121904032#2 -121904032#1 121904034 121904033#0 121904033#1 121904036#0 121904036#1 1255350487#0 357738872 -1184254523#1 -1184254523#0 -36792406#2 -36792406#1 -36792406#0 36736000#11 36736000#12 36736000#13 36736000#14 36736534#0 36736534#1 36736534#2 225314605#0 225314605#2 36736537#0 36736538 53109782#1 32236937" >
        <stop busStop="427144133" duration="20" until="61.0"/> <!-- Kirjasto 5 -->
        <stop busStop="650774425" duration="20" until="415.0"/> <!-- Urhonkatu 2 -->
        <stop busStop="659578624" duration="20" until="641.0"/> <!-- Tourunsilta 2 -->
    </route>
    <route id="pt_bus_1M:1" edges="32236935#0 48900317#0 48900317#1 1255350593 1255350596#0 1255350596#1 9827773#0 9827773#2 1255350489 75744245#1 75744245#3 75744245#4 135256124#0 135256124#2 230541105#0 230541105#1 230541105#2 1255350541#0 1255350541#1 219919662 36865768 219839536#0 219839536#1 219839544 219839531#0 219839531#1 135256136 219839539" >
        <stop busStop="427741946" duration="20" until="467.0"/> <!-- Kauppatori 12 -->
    </route>
    <route id="pt_bus_10:3" edges="32236935#0 48900317#0 48900317#1 1255350593 1255350596#0 1255350596#1 9827773#0 9827773#2 1255350489 75744245#1 75744245#3 75744245#4 135256124#0 135256124#2 230541105#0 230541105#1 230541105#2 1255350541#0 1255350541#1 219919662 36865768 219839536#0 219839536#1 219839544 219839531#0 219839531#1 135256136 219839539" >
        <stop busStop="427741946" duration="20" until="489.0"/> <!-- Kauppatori 12 -->
    </route>
    <route id="pt_bus_Jyväskylä_-_Pihtipudas:0" edges="79761424#0 79761424#1 45356987#0 45356987#1 129437897#0 129437897#1 129437897#2 53259724 45356986 -45356991#2 -45356991#1 -36768024#1 -36768024#0 44850722 1255350597 160105973#0 160105973#1 199260468#1 1255350489 75744245#1 75744245#3 75744245#4 135256124#0 135256124#2 230541105#0 230541105#1 230541105#2 1255350541#0 1255350541#1 219919662 36865768 219839536#0 219839536#1 219839544 219839531#0 219839531#1 135256136 219839539" >
        <stop busStop="427741944" duration="20" until="537.0"/> <!-- Kauppatori 11 -->
    </route>
    <route id="pt_bus_40:1" edges="219839538 -135256136 219839537#0 219839537#1 -219839544 219839530#0 219839530#1 -36865768 219919658 -125663494 36826406#0 36826406#1 36826406#2 270326706#0 270326706#1 270326706#2 1255350591#0 1255350591#1 55358954#0 225314613 36736537#0 76811652#0 76811652#1 356112250 45356993 36768024#0 36768024#1 44842048" >
        <stop busStop="428075082" duration="20" until="185.0"/> <!-- Jyväskylä Kauppatori 10 -->
        <stop busStop="1543094086" duration="20" until="805.0"/> <!-- Jyväskylä Matkakeskus -->
    </route>
    <route id="pt_bus_3:1" edges="32236935#0 48900317#0 48900317#1 1255350593 1255350596#0 1255350596#1 9828298#0 76811652#0 76811652#1 356112250 -1255350601#0 -1255350600 -10207176#1 -10207176#0 -36736000#14 -36736000#13 -36736000#12 -36736000#11 36792406#0 36792406#1 36792406#2 1255350602 1184254523#1 -357738872 -1255350487#1 -121904036#1 -121904036#0 76811653#0 76811653#1 51732885#0 51732885#1 121904032#1 121904032#2 121904032#3 121904032#4 121904032#5 121904032#6 121904038#0 121904038#1 130596423#0 130596423#1 1139132979#0 1139132979#1 121904037#0 121904037#1 121904037#2 121904037#3 121904037#4 121904037#5 10204536#0 10204536#1 10204536#2 10204536#3 10204536#4 10204536#5 10204536#6 36735997#0 36735997#1 36735997#2 36735997#3 36735997#4 36735997#5 36735997#6" >
        <stop busStop="-427144104" duration="20" until="246.0"/> <!-- Urhonkatu 1 -->
    </route>
    <route id="pt_bus_2:3" edges="32236935#0 48900317#0 48900317#1 1255350593 1255350596#0 1255350596#1 9828298#0 76811652#0 76811652#1 356112250 -1255350601#0 -1255350600 -10207176#1 -10207176#0 -36736000#14 -36736000#13 -36736000#12 -36736000#11 36792406#0 36792406#1 36792406#2 1255350602 1184254523#1 -357738872 -1255350487#1 -121904036#1 -121904036#0 76811653#0 76811653#1 51732885#0 51732885#1 121904032#1 121904032#2 121904032#3 121904032#4 121904032#5 121904032#6 121904038#0 121904038#1 130596423#0 130596423#1 1139132979#0 1139132979#1 121904037#0 121904037#1 121904037#2 121904037#3 121904037#4 121904037#5 10204536#0 10204536#1 10204536#2 10204536#3 10204536#4 10204536#5 10204536#6 36735997#0 36735997#1 36735997#2 36735997#3 36735997#4 36735997#5 36735997#6" >
        <stop busStop="-427144104" duration="20" until="291.0"/> <!-- Urhonkatu 1 -->
    </route>
    <route id="pt_bus_10:0" edges="32236935#0 48900317#0 48900317#1 1255350593 1255350596#0 1255350596#1 9828298#0 76811652#0 76811652#1 356112250 -1255350601#0 -1255350600 -10207176#1 -10207176#0 -36736000#14 -36736000#13 -36736000#12 -36736000#11 36792406#0 36792406#1 36792406#2 1255350602 1184254523#1 -357738872 -1255350487#1 -121904036#1 -121904036#0 76811653#0 76811653#1 51732885#0 51732885#1 121904032#1 121904032#2 121904032#3 121904032#4 121904032#5 121904032#6 121904038#0 121904038#1 130596423#0 130596423#1 1139132979#0 1139132979#1 121904037#0 121904037#1 121904037#2 121904037#3 121904037#4 121904037#5 10204536#0 10204536#1 10204536#2 10204536#3 10204536#4 10204536#5 10204536#6 36735997#0 36735997#1 36735997#2 36735997#3 36735997#4 36735997#5 36735997#6" >
        <stop busStop="-427144104" duration="20" until="292.0"/> <!-- Urhonkatu 1 -->
    </route>
    <route id="pt_bus_42:2" edges="129857672 36736000#0 36736000#1 36736000#2 36736000#3 36736000#4 36736000#5 36736000#6 36736000#7 36736000#8 36736000#9 36736000#10 36736000#11 36736000#12 36736000#13 36736000#14 36736534#0 36736534#1 36736534#2 225314605#0 225314605#2 75739000 75744245#1 75744245#3 75744245#4 135256124#0 135256124#2 230541105#0 230541105#1 230541105#2 1255350541#0 1255350541#1 219919662 36865768 219839536#0 219839536#1 219839544 219839531#0 219839531#1 135256136 219839539" >
        <stop busStop="427144109" duration="20" until="40.0"/> <!-- Jyväskylä Keskusta 4 -->
        <stop busStop="427741938" duration="20" until="146.0"/> <!-- Urhonkatu 4 -->
        <stop busStop="427741946" duration="20" until="688.0"/> <!-- Kauppatori 12 -->
    </route>
    <route id="pt_bus_Jyväskylä_–_Keuruu:0" edges="45356994#0 45356994#1 156532900 45356987#0 45356987#1 129437897#0 129437897#1 129437897#2 53259724 45356986 -45356991#2 -45356991#1 -36768024#1 -36768024#0 44850722 1255350597 160105973#0 160105973#1 199260468#1 1255350489 75744245#1 75744245#3 75744245#4 135256124#0 135256124#2 230541105#0 230541105#1 230541105#2 1255350541#0 1255350541#1 37568263#0 37568263#1 1255350543#1 53059777#0 53060862#0 53060862#1 53060862#2 1255350548#0 1255350548#1 36865769#0 36865769#1 1151626837#0 1151626837#1" >
        <stop busStop="431901579" duration="20" until="625.0"/> <!-- Kauppatori 2 -->
    </route>
    <route id="pt_bus_Jyväskylä_–_Uurainen:0" edges="45356994#0 45356994#1 156532900 45356987#0 45356987#1 129437897#0 129437897#1 129437897#2 53259724 45356986 -45356991#2 -45356991#1 -36768024#1 -36768024#0 44850722 1255350597 160105973#0 160105973#1 199260468#1 1255350489 75744245#1 75744245#3 75744245#4 135256124#0 135256124#2 230541105#0 230541105#1 230541105#2 1255350541#0 1255350541#1 37568263#0 37568263#1 1255350543#1 53059777#0 53060862#0 53060862#1 53060862#2 1255350548#0 1255350548#1 36865769#0 36865769#1 1151626837#0 1151626837#1" >
        <stop busStop="431901579" duration="20" until="657.0"/> <!-- Kauppatori 2 -->
    </route>
    <route id="pt_bus_12:0" edges="25832375#2 25832375#3 25832375#4 25832375#5 -10204536#6 -10204536#5 -10204536#4 -10204536#3 -10204536#2 -10204536#1 -10204536#0 -121904037#5 -121904037#4 -121904037#3 -121904037#2 -121904037#1 -121904037#0 -1139132979#1 -1139132979#0 -130596423#1 -130596423#0 -121904038#1 -121904038#0 -121904032#6 -121904032#5 -121904032#4 -121904032#3 -121904032#2 -121904032#1 121904034 -130596420 -650577130#1 -650577130#0 -55358955 -55358956#0 -1056911808 -36789027 36789027 129857672 36736000#0 36736000#1 36736000#2 36736000#3 36736000#4 36736000#5 36736000#6 36736000#7 36736000#8 36736000#9 36736000#10 36736000#11 36736000#12 36736000#13 36736000#14 36736534#0 36736534#1" >
        <stop busStop="427144133" duration="20" until="50.0"/> <!-- Kirjasto 5 -->
        <stop busStop="6029151339" duration="20" until="609.0"/> <!-- Pali 1/ Asemakatu -->
        <stop busStop="427741938" duration="20" until="831.0"/> <!-- Urhonkatu 4 -->
    </route>
    <route id="pt_bus_25:1" edges="1255350605 25832375#0 25832375#1 25832375#2 25832375#3 25832375#4 25832375#5 -10204536#6 -10204536#5 -10204536#4 -10204536#3 -10204536#2 -10204536#1 -10204536#0 -121904037#5 -121904037#4 -121904037#3 -121904037#2 -121904037#1 -121904037#0 -1139132979#1 -1139132979#0 -130596423#1 -130596423#0 -121904038#1 -121904038#0 -121904032#6 -121904032#5 -121904032#4 -121904032#3 -121904032#2 -121904032#1 121904034 -130596420 -650577130#1 -650577130#0 -55358955 -55358956#0 -1056911808 -36789027 36789027 129857672 36736000#0 36736000#1 36736000#2 36736000#3 36736000#4 36736000#5 36736000#6 36736000#7 36736000#8 36736000#9 36736000#10 36736000#11 36736000#12 36736000#13 36736000#14 36736534#0 36736534#1 36736534#2 225314605#0 225314605#2 36736537#0 36736538 53109782#1 32236937" >
        <stop busStop="427144133" duration="20" until="92.0"/> <!-- Kirjasto 5 -->
        <stop busStop="6029151339" duration="20" until="649.0"/> <!-- Pali 1/ Asemakatu -->
        <stop busStop="650774425" duration="20" until="755.0"/> <!-- Urhonkatu 2 -->
        <stop busStop="659578624" duration="20" until="1012.0"/> <!-- Tourunsilta 2 -->
    </route>
    <route id="pt_bus_13:3" edges="1255350603 51732892#2 51732890 -1255350500 -121904037#5 -121904037#4 -121904037#3 -121904037#2 -121904037#1 -121904037#0 -1139132979#1 -1139132979#0 -130596423#1 -130596423#0 -121904038#1 -121904038#0 -121904032#6 -121904032#5 -121904032#4 -121904032#3 -121904032#2 -121904032#1 121904034 -130596420 -650577130#1 -650577130#0 -55358955 -55358956#0 -1056911808 -36789027 36789027 129857672 36736000#0 36736000#1 36736000#2 36736000#3 36736000#4 36736000#5 36736000#6 36736000#7 36736000#8 36736000#9 36736000#10 36736000#11 36736000#12 36736000#13 36736000#14 36736534#0 36736534#1 36736534#2 225314605#0 225314605#2 75739000 75744245#1 75744245#3 75744245#4 135256124#0 135256124#2 230541105#0 230541105#1 230541105#2 1255350541#0 1255350541#1 219919662 36865768" >
        <stop busStop="9948795331" duration="20" until="331.0"/> <!-- None -->
        <stop busStop="427741938" duration="20" until="493.0"/> <!-- Urhonkatu 4 -->
        <stop busStop="428075084" duration="20" until="840.0"/> <!-- Jyväskylä Kauppatori 9 -->
    </route>
    <route id="pt_bus_3:0" edges="1255350605 25832375#0 25832375#1 25832375#2 25832375#3 25832375#4 25832375#5 -10204536#6 -10204536#5 -10204536#4 -10204536#3 -10204536#2 -10204536#1 -10204536#0 -121904037#5 -121904037#4 -121904037#3 -121904037#2 -121904037#1 -121904037#0 -1139132979#1 -1139132979#0 -130596423#1 -130596423#0 -121904038#1 -121904038#0 -121904032#6 -121904032#5 -121904032#4 -121904032#3 -121904032#2 -121904032#1 121904034 -130596420 -650577130#1 -650577130#0 -55358955 -55358956#0 36736000#0 36736000#1 36736000#2 36736000#3 36736000#4 36736000#5 36736000#6 36736000#7 36736000#8 36736000#9 36736000#10 36736000#11 36736000#12 36736000#13 36736000#14 36736534#0 36736534#1 36736534#2 225314605#0 225314605#2 36736537#0 36736538 53109782#1 32236937" >
        <stop busStop="427144135" duration="20" until="67.0"/> <!-- Kirjasto 6 -->
        <stop busStop="427144109" duration="20" until="705.0"/> <!-- Jyväskylä Keskusta 4 -->
        <stop busStop="650774425" duration="20" until="793.0"/> <!-- Urhonkatu 2 -->
        <stop busStop="659578624" duration="20" until="1034.0"/> <!-- Tourunsilta 2 -->
    </route>
    <route id="pt_bus_2M:0" edges="32236935#0 48900317#0 48900317#1 1255350593 1255350596#0 1255350596#1 9828298#0 76811652#0 76811652#1 356112250 -1255350601#0 -1255350600 -10207176#1 -10207176#0 -36736000#14 -36736000#13 -36736000#12 -36736000#11 36792406#0 36792406#1 36792406#2 1255350602 1184254523#1 -357738872 -1255350487#1 -121904036#1 -121904036#0 76811653#0 76811653#1 51732885#0 51732885#1 121904032#1 121904032#2 121904032#3 121904032#4 121904032#5 121904032#6 121904038#0 121904038#1 130596423#0 130596423#1 1139132979#0 1139132979#1 121904037#0 121904037#1 121904037#2 121904037#3 121904037#4 121904037#5 10204536#0 10204536#1 10204536#2 10204536#3 10204536#4 10204536#5 10204536#6 -25832375#5 -25832375#4 -25832375#3 -25832375#2 -25832375#1 -25832375#0 -1255350605" >
        <stop busStop="-427144104" duration="20" until="357.0"/> <!-- Urhonkatu 1 -->
    </route>
    <route id="pt_bus_22:0" edges="129857672 36736000#0 36736000#1 36736000#2 36736000#3 36736000#4 36736000#5 36736000#6 36736000#7 36736000#8 36736000#9 36736000#10 36736000#11 36736000#12 36736000#13 36736000#14 36736534#0 36736534#1 36736534#2 225314605#0 225314605#2 75739000 75744245#1 75744245#3 75744245#4 135256124#0 135256124#2 230541105#0 230541105#1 230541105#2 1255350541#0 1255350541#1 219919662 36865768 219839536#0 219839536#1 219839544 219839531#0 219839531#1 135256136 219839539" >
        <stop busStop="427741938" duration="20" until="109.0"/> <!-- Urhonkatu 4 -->
        <stop busStop="427741946" duration="20" until="653.0"/> <!-- Kauppatori 12 -->
    </route>
    <route id="pt_bus_1:0" edges="1255350605 25832375#0 25832375#1 25832375#2 25832375#3 25832375#4 25832375#5 -10204536#6 -10204536#5 -10204536#4 -10204536#3 -10204536#2 -10204536#1 -10204536#0 -121904037#5 -121904037#4 -121904037#3 -121904037#2 -121904037#1 -121904037#0 -1139132979#1 -1139132979#0 -130596423#1 -130596423#0 -121904038#1 -121904038#0 -121904032#6 -121904032#5 -121904032#4 -121904032#3 -121904032#2 -121904032#1 121904034 -130596420 -650577130#1 -650577130#0 -55358955 -55358956#0 36736000#0 36736000#1 36736000#2 36736000#3 36736000#4 36736000#5 36736000#6 36736000#7 36736000#8 36736000#9 36736000#10 36736000#11 36736000#12 36736000#13 36736000#14 36736534#0 36736534#1 36736534#2 225314605#0 225314605#2 36736537#0 36736538 53109782#1 32236937" >
        <stop busStop="427144135" duration="20" until="95.0"/> <!-- Kirjasto 6 -->
        <stop busStop="427144109" duration="20" until="725.0"/> <!-- Jyväskylä Keskusta 4 -->
        <stop busStop="650774425" duration="20" until="813.0"/> <!-- Urhonkatu 2 -->
        <stop busStop="659578624" duration="20" until="1056.0"/> <!-- Tourunsilta 2 -->
    </route>
    <route id="pt_bus_22:2" edges="129857672 36736000#0 36736000#1 36736000#2 36736000#3 36736000#4 36736000#5 36736000#6 36736000#7 36736000#8 36736000#9 36736000#10 36736000#11 36736000#12 36736000#13 36736000#14 36736534#0 36736534#1 36736534#2 225314605#0 225314605#2 75739000 75744245#1 75744245#3 75744245#4 135256124#0 135256124#2 230541105#0 230541105#1 230541105#2 1255350541#0 1255350541#1 219919662 36865768 219839536#0 219839536#1 219839544 219839531#0 219839531#1 135256136 219839539" >
        <stop busStop="427741938" duration="20" until="142.0"/> <!-- Urhonkatu 4 -->
        <stop busStop="427741946" duration="20" until="687.0"/> <!-- Kauppatori 12 -->
    </route>
    <route id="pt_bus_3:2" edges="32236935#0 48900317#0 48900317#1 1255350593 1255350596#0 1255350596#1 9828298#0 76811652#0 76811652#1 356112250 -1255350601#0 -1255350600 -10207176#1 -10207176#0 -36736000#14 -36736000#13 -36736000#12 -36736000#11 36736000#11 36736000#12 36736000#13 36736000#14 36736534#0 36736534#1 36736534#2 225314605#0 225314605#2 75739000 75744245#1 75744245#3 75744245#4 135256124#0 135256124#2 230541105#0 230541105#1 230541105#2 1255350541#0 1255350541#1 219919662 36865768 219839536#0 219839536#1 219839544 219839531#0 219839531#1 135256136 219839539" >
        <stop busStop="-427144104" duration="20" until="286.0"/> <!-- Urhonkatu 1 -->
    </route>
    <route id="pt_bus_43:0" edges="32236935#0 48900317#0 48900317#1 1255350593 1255350596#0 1255350596#1 9828298#0 76811652#0 76811652#1 356112250 -1255350601#0 -1255350600 -10207176#1 -10207176#0 -36736000#14 -36736000#13 -36736000#12 -36736000#11 36792406#0 36792406#1 36792406#2 1255350602 1184254523#1 -357738872 -1255350487#1 -121904036#1 -121904036#0 76811653#0 76811653#1 51732885#0 51732885#1 121904032#1 121904032#2 121904032#3 121904032#4 121904032#5 121904032#6 121904038#0 121904038#1 130596423#0 130596423#1 1139132979#0 1139132979#1 121904037#0 121904037#1 121904037#2 121904037#3 121904037#4 121904037#5 10204536#0 10204536#1 10204536#2 10204536#3 10204536#4 10204536#5 10204536#6 36735997#0 36735997#1 36735997#2 36735997#3 36735997#4 36735997#5 36735997#6" >
        <stop busStop="-427144104" duration="20" until="347.0"/> <!-- Urhonkatu 1 -->
    </route>
    <route id="pt_bus_20:1" edges="1255350603 51732892#2 51732890 -1255350500 -121904037#5 -121904037#4 -121904037#3 -121904037#2 -121904037#1 -121904037#0 -1139132979#1 -1139132979#0 -130596423#1 -130596423#0 -121904038#1 -121904038#0 -121904032#6 -121904032#5 -121904032#4 -121904032#3 -121904032#2 -121904032#1 121904034 -130596420 -650577130#1 -650577130#0 -55358955 -55358956#0 -1056911808 -36789027 36789027 129857672 36736000#0 36736000#1 36736000#2 36736000#3 36736000#4 36736000#5 36736000#6 36736000#7 36736000#8 36736000#9 36736000#10 36736000#11 36736000#12 36736000#13 36736000#14 36736534#0 36736534#1 36736534#2 225314605#0 225314605#2 36736537#0 36736538 53109782#1 32236937" >
        <stop busStop="6029151339" duration="20" until="414.0"/> <!-- Pali 1/ Asemakatu -->
        <stop busStop="650774425" duration="20" until="537.0"/> <!-- Urhonkatu 2 -->
        <stop busStop="659578624" duration="20" until="842.0"/> <!-- Tourunsilta 2 -->
    </route>
    <route id="pt_bus_42:0" edges="32236935#0 48900317#0 48900317#1 1255350593 1255350596#0 1255350596#1 9828298#0 76811652#0 76811652#1 356112250 -1255350601#0 -1255350600 -10207176#1 -10207176#0 -36736000#14 -36736000#13 -36736000#12 -36736000#11 36792406#0 36792406#1 36792406#2 1255350602 1184254523#1 -357738872 -1255350487#1 -121904036#1 -121904036#0 76811653#0 76811653#1 51732885#0 51732885#1 121904032#1 121904032#2 121904032#3 121904032#4 121904032#5 121904032#6 121904038#0 121904038#1 130596423#0 130596423#1 1139132979#0 1139132979#1 121904037#0 121904037#1 121904037#2 121904037#3 121904037#4 121904037#5 10204536#0 10204536#1 10204536#2 10204536#3 10204536#4 10204536#5 10204536#6 36735997#0 36735997#1 36735997#2 36735997#3 36735997#4 36735997#5 36735997#6" >
        <stop busStop="-427144104" duration="20" until="372.0"/> <!-- Urhonkatu 1 -->
    </route>
    <route id="pt_bus_10:1" edges="32236935#0 48900317#0 48900317#1 1255350593 1255350596#0 1255350596#1 9828298#0 76811652#0 76811652#1 356112250 -1255350601#0 -1255350600 -10207176#1 -10207176#0 -36736000#14 -36736000#13 -36736000#12 -36736000#11 36792406#0 36792406#1 36792406#2 1255350602 1184254523#1 -357738872 -1255350487#1 -121904036#1 -121904036#0 76811653#0 76811653#1 51732885#0 51732885#1 121904032#1 121904032#2 121904032#3 121904032#4 121904032#5 121904032#6 121904038#0 121904038#1 130596423#0 130596423#1 1139132979#0 1139132979#1 121904037#0 121904037#1 121904037#2 121904037#3 121904037#4 121904037#5 10204536#0 10204536#1 10204536#2 10204536#3 10204536#4 10204536#5 10204536#6 36735997#0 36735997#1 36735997#2 36735997#3 36735997#4 36735997#5 36735997#6" >
        <stop busStop="-427144104" duration="20" until="351.0"/> <!-- Urhonkatu 1 -->
    </route>
    <route id="pt_bus_15:3" edges="-36789027 36789027 129857672 55358956#0 55358956#1 650577130#0 650577130#1 130596420 51732885#0 51732885#1 121904032#1 121904032#2 121904032#3 121904032#4 121904032#5 121904032#6 121904038#0 121904038#1 130596423#0 130596423#1 1139132979#0 1139132979#1 121904037#0 121904037#1 121904037#2 121904037#3 121904037#4 121904037#5 10204536#0 10204536#1 10204536#2 10204536#3 10204536#4 10204536#5 10204536#6 36735996#0 36735996#1 36735996#2 36735996#3 36735996#4 36735996#5 -36735996#5 -36735996#4 -36735996#3 -36735996#2 -36735996#1 -36735996#0 -25832375#5 -25832375#4 -25832375#3 -25832375#2 -25832375#1 -25832375#0 -1255350605" >
        <stop busStop="-9948795329" duration="20" until="72.0"/> <!-- None -->
        <stop busStop="-427144127" duration="20" until="813.0"/> <!-- Kirjasto 1 -->
    </route>
    <route id="pt_bus_Pihtipudas-Jyväskylä:0" edges="219839538 -135256136 219839537#0 219839537#1 -219839544 219839530#0 219839530#1 -36865768 219919658 -125663494 36826406#0 36826406#1 36826406#2 270326706#0 270326706#1 270326706#2 1255350591#0 1255350591#1 55358954#0 225314613 36736537#0 76811652#0 76811652#1 356112250 45356993 36768024#0 36768024#1 44842048 45356990 129437898#0 129437898#1 129437898#2 156532898" >
        <stop busStop="-428075083" duration="20" until="177.0"/> <!-- Jyväskylä Kauppatori 8 -->
        <stop busStop="1543094086@2109154" duration="20" until="1135.0"/> <!-- Jyväskylä Matkakeskus -->
    </route>
    <route id="pt_bus_Pihtipudas-Jyväskylä:1" edges="219839538 -135256136 219839537#0 219839537#1 -219839544 219839530#0 219839530#1 -36865768 219919658 -125663494 36826406#0 36826406#1 36826406#2 270326706#0 270326706#1 270326706#2 1255350591#0 1255350591#1 55358954#0 225314613 36736537#0 76811652#0 76811652#1 356112250 45356993 36768024#0 36768024#1 44842048 45356990 129437898#0 129437898#1 129437898#2 156532898" >
        <stop busStop="-428075083" duration="20" until="308.0"/> <!-- Jyväskylä Kauppatori 8 -->
        <stop busStop="1543094086@2109154" duration="20" until="1178.0"/> <!-- Jyväskylä Matkakeskus -->
    </route>
    <route id="pt_bus_2:0" edges="1255350605 25832375#0 25832375#1 25832375#2 25832375#3 25832375#4 25832375#5 -10204536#6 -10204536#5 -10204536#4 -10204536#3 -10204536#2 -10204536#1 -10204536#0 -121904037#5 -121904037#4 -121904037#3 -121904037#2 -121904037#1 -121904037#0 -1139132979#1 -1139132979#0 -130596423#1 -130596423#0 -121904038#1 -121904038#0 -121904032#6 -121904032#5 -121904032#4 -121904032#3 -121904032#2 -121904032#1 121904034 -130596420 -650577130#1 -650577130#0 -55358955 -55358956#0 36736000#0 36736000#1 36736000#2 36736000#3 36736000#4 36736000#5 36736000#6 36736000#7 36736000#8 36736000#9 36736000#10 36736000#11 36736000#12 36736000#13 36736000#14 36736534#0 36736534#1 36736534#2 225314605#0 225314605#2 36736537#0 36736538 53109782#1 32236937" >
        <stop busStop="427144135" duration="20" until="115.0"/> <!-- Kirjasto 6 -->
        <stop busStop="427144109" duration="20" until="1008.0"/> <!-- Jyväskylä Keskusta 4 -->
        <stop busStop="650774425" duration="20" until="1095.0"/> <!-- Urhonkatu 2 -->
        <stop busStop="659578624" duration="20" until="1340.0"/> <!-- Tourunsilta 2 -->
    </route>
    <route id="pt_bus_1:2" edges="32236935#0 48900317#0 48900317#1 1255350593 1255350596#0 1255350596#1 9828298#0 76811652#0 76811652#1 356112250 -1255350601#0 -1255350600 -10207176#1 -10207176#0 -36736000#14 -36736000#13 -36736000#12 -36736000#11 36792406#0 36792406#1 36792406#2 1255350602 1184254523#1 -357738872 -1255350487#1 -121904036#1 -121904036#0 76811653#0 76811653#1 51732885#0 51732885#1 121904032#1 121904032#2 121904032#3 121904032#4 121904032#5 121904032#6 121904038#0 121904038#1 130596423#0 130596423#1 1139132979#0 1139132979#1 121904037#0 121904037#1 121904037#2 121904037#3 121904037#4 121904037#5 10204536#0 10204536#1 10204536#2 10204536#3 10204536#4 10204536#5 10204536#6 36735997#0 36735997#1 36735997#2 36735997#3 36735997#4 36735997#5 36735997#6" >
        <stop busStop="-427144104" duration="20" until="265.0"/> <!-- Urhonkatu 1 -->
    </route>
    <route id="pt_bus_18:0" edges="-233102567 -30378052 -1255350561 111678871 36826391#1 50848414#0 50848414#1 50848414#2 50848414#3 50849188#0 50849188#1 50848416#0 50848416#1 -40927608#4 -40927608#3 40927608#3 40927608#4 50848417#0 50848417#1 50849189#0 50849189#1 1255350551#0 1255350551#1 1255350551#2 50848418#0 50848418#2 122106500#1 122106500#2 122106500#3 1255350559 -1255350557 122023118 165329099#0 165329099#1 227205334 1255350556 227205343#0 175482170 45357072 226852935 40079809 36826395 121904044 51732890 -1255350500 10204536#0 10204536#1 10204536#2 10204536#3 10204536#4 10204536#5 10204536#6 36735997#0 36735997#1 36735997#2 36735997#3 36735997#4 36735997#5 36735997#6" >
        <stop busStop="-731417280" duration="20" until="238.0"/> <!-- Messukeskus 1 -->
    </route>